
---------- Begin Simulation Statistics ----------
sim_seconds                                  0.200742                       # Number of seconds simulated
sim_ticks                                200741931000                       # Number of ticks simulated
final_tick                               2391958149000                       # Number of ticks from beginning of simulation (restored from checkpoints and never reset)
sim_freq                                 1000000000000                       # Frequency of simulated ticks
host_inst_rate                                  80866                       # Simulator instruction rate (inst/s)
host_op_rate                                   140701                       # Simulator op (including micro ops) rate (op/s)
host_tick_rate                              162331423                       # Simulator tick rate (ticks/s)
host_mem_usage                                2202036                       # Number of bytes of host memory used
host_seconds                                  1236.62                       # Real time elapsed on the host
sim_insts                                   100000000                       # Number of instructions simulated
sim_ops                                     173993441                       # Number of ops (including micro ops) simulated
system.physmem.bytes_read::cpu.inst              3840                       # Number of bytes read from this memory
system.physmem.bytes_read::cpu.data              2944                       # Number of bytes read from this memory
system.physmem.bytes_read::total                 6784                       # Number of bytes read from this memory
system.physmem.bytes_inst_read::cpu.inst         3840                       # Number of instructions bytes read from this memory
system.physmem.bytes_inst_read::total            3840                       # Number of instructions bytes read from this memory
system.physmem.num_reads::cpu.inst                 60                       # Number of read requests responded to by this memory
system.physmem.num_reads::cpu.data                 46                       # Number of read requests responded to by this memory
system.physmem.num_reads::total                   106                       # Number of read requests responded to by this memory
system.physmem.bw_read::cpu.inst                19129                       # Total read bandwidth from this memory (bytes/s)
system.physmem.bw_read::cpu.data                14666                       # Total read bandwidth from this memory (bytes/s)
system.physmem.bw_read::total                   33795                       # Total read bandwidth from this memory (bytes/s)
system.physmem.bw_inst_read::cpu.inst           19129                       # Instruction read bandwidth from this memory (bytes/s)
system.physmem.bw_inst_read::total              19129                       # Instruction read bandwidth from this memory (bytes/s)
system.physmem.bw_total::cpu.inst               19129                       # Total bandwidth to/from this memory (bytes/s)
system.physmem.bw_total::cpu.data               14666                       # Total bandwidth to/from this memory (bytes/s)
system.physmem.bw_total::total                  33795                       # Total bandwidth to/from this memory (bytes/s)
system.l2.replacements                              0                       # number of replacements
system.l2.tagsinuse                        100.933714                       # Cycle average of tags in use
system.l2.total_refs                                0                       # Total number of references to valid blocks.
system.l2.sampled_refs                            101                       # Sample count of references to valid blocks.
system.l2.avg_refs                                  0                       # Average number of references to valid blocks.
system.l2.warmup_cycle                              0                       # Cycle when the warmup percentage was hit.
system.l2.occ_blocks::cpu.inst              59.954015                       # Average occupied blocks per requestor
system.l2.occ_blocks::cpu.data              40.979698                       # Average occupied blocks per requestor
system.l2.occ_percent::cpu.inst              0.003659                       # Average percentage of cache occupancy
system.l2.occ_percent::cpu.data              0.002501                       # Average percentage of cache occupancy
system.l2.occ_percent::total                 0.006161                       # Average percentage of cache occupancy
system.l2.ReadReq_misses::cpu.inst                 60                       # number of ReadReq misses
system.l2.ReadReq_misses::cpu.data                 41                       # number of ReadReq misses
system.l2.ReadReq_misses::total                   101                       # number of ReadReq misses
system.l2.ReadExReq_misses::cpu.data                5                       # number of ReadExReq misses
system.l2.ReadExReq_misses::total                   5                       # number of ReadExReq misses
system.l2.demand_misses::cpu.inst                  60                       # number of demand (read+write) misses
system.l2.demand_misses::cpu.data                  46                       # number of demand (read+write) misses
system.l2.demand_misses::total                    106                       # number of demand (read+write) misses
system.l2.overall_misses::cpu.inst                 60                       # number of overall misses
system.l2.overall_misses::cpu.data                 46                       # number of overall misses
system.l2.overall_misses::total                   106                       # number of overall misses
system.l2.ReadReq_miss_latency::cpu.inst      3150500                       # number of ReadReq miss cycles
system.l2.ReadReq_miss_latency::cpu.data      2151000                       # number of ReadReq miss cycles
system.l2.ReadReq_miss_latency::total         5301500                       # number of ReadReq miss cycles
system.l2.ReadExReq_miss_latency::cpu.data       267500                       # number of ReadExReq miss cycles
system.l2.ReadExReq_miss_latency::total        267500                       # number of ReadExReq miss cycles
system.l2.demand_miss_latency::cpu.inst       3150500                       # number of demand (read+write) miss cycles
system.l2.demand_miss_latency::cpu.data       2418500                       # number of demand (read+write) miss cycles
system.l2.demand_miss_latency::total          5569000                       # number of demand (read+write) miss cycles
system.l2.overall_miss_latency::cpu.inst      3150500                       # number of overall miss cycles
system.l2.overall_miss_latency::cpu.data      2418500                       # number of overall miss cycles
system.l2.overall_miss_latency::total         5569000                       # number of overall miss cycles
system.l2.ReadReq_accesses::cpu.inst               60                       # number of ReadReq accesses(hits+misses)
system.l2.ReadReq_accesses::cpu.data               41                       # number of ReadReq accesses(hits+misses)
system.l2.ReadReq_accesses::total                 101                       # number of ReadReq accesses(hits+misses)
system.l2.ReadExReq_accesses::cpu.data              5                       # number of ReadExReq accesses(hits+misses)
system.l2.ReadExReq_accesses::total                 5                       # number of ReadExReq accesses(hits+misses)
system.l2.demand_accesses::cpu.inst                60                       # number of demand (read+write) accesses
system.l2.demand_accesses::cpu.data                46                       # number of demand (read+write) accesses
system.l2.demand_accesses::total                  106                       # number of demand (read+write) accesses
system.l2.overall_accesses::cpu.inst               60                       # number of overall (read+write) accesses
system.l2.overall_accesses::cpu.data               46                       # number of overall (read+write) accesses
system.l2.overall_accesses::total                 106                       # number of overall (read+write) accesses
system.l2.ReadReq_miss_rate::cpu.inst               1                       # miss rate for ReadReq accesses
system.l2.ReadReq_miss_rate::cpu.data               1                       # miss rate for ReadReq accesses
system.l2.ReadReq_miss_rate::total                  1                       # miss rate for ReadReq accesses
system.l2.ReadExReq_miss_rate::cpu.data             1                       # miss rate for ReadExReq accesses
system.l2.ReadExReq_miss_rate::total                1                       # miss rate for ReadExReq accesses
system.l2.demand_miss_rate::cpu.inst                1                       # miss rate for demand accesses
system.l2.demand_miss_rate::cpu.data                1                       # miss rate for demand accesses
system.l2.demand_miss_rate::total                   1                       # miss rate for demand accesses
system.l2.overall_miss_rate::cpu.inst               1                       # miss rate for overall accesses
system.l2.overall_miss_rate::cpu.data               1                       # miss rate for overall accesses
system.l2.overall_miss_rate::total                  1                       # miss rate for overall accesses
system.l2.ReadReq_avg_miss_latency::cpu.inst 52508.333333                       # average ReadReq miss latency
system.l2.ReadReq_avg_miss_latency::cpu.data 52463.414634                       # average ReadReq miss latency
system.l2.ReadReq_avg_miss_latency::total 52490.099010                       # average ReadReq miss latency
system.l2.ReadExReq_avg_miss_latency::cpu.data        53500                       # average ReadExReq miss latency
system.l2.ReadExReq_avg_miss_latency::total        53500                       # average ReadExReq miss latency
system.l2.demand_avg_miss_latency::cpu.inst 52508.333333                       # average overall miss latency
system.l2.demand_avg_miss_latency::cpu.data 52576.086957                       # average overall miss latency
system.l2.demand_avg_miss_latency::total 52537.735849                       # average overall miss latency
system.l2.overall_avg_miss_latency::cpu.inst 52508.333333                       # average overall miss latency
system.l2.overall_avg_miss_latency::cpu.data 52576.086957                       # average overall miss latency
system.l2.overall_avg_miss_latency::total 52537.735849                       # average overall miss latency
system.l2.blocked_cycles::no_mshrs                  0                       # number of cycles access was blocked
system.l2.blocked_cycles::no_targets                0                       # number of cycles access was blocked
system.l2.blocked::no_mshrs                         0                       # number of cycles access was blocked
system.l2.blocked::no_targets                       0                       # number of cycles access was blocked
system.l2.avg_blocked_cycles::no_mshrs            nan                       # average number of cycles each access was blocked
system.l2.avg_blocked_cycles::no_targets          nan                       # average number of cycles each access was blocked
system.l2.fast_writes                               0                       # number of fast writes performed
system.l2.cache_copies                              0                       # number of cache copies performed
system.l2.ReadReq_mshr_misses::cpu.inst            60                       # number of ReadReq MSHR misses
system.l2.ReadReq_mshr_misses::cpu.data            41                       # number of ReadReq MSHR misses
system.l2.ReadReq_mshr_misses::total              101                       # number of ReadReq MSHR misses
system.l2.ReadExReq_mshr_misses::cpu.data            5                       # number of ReadExReq MSHR misses
system.l2.ReadExReq_mshr_misses::total              5                       # number of ReadExReq MSHR misses
system.l2.demand_mshr_misses::cpu.inst             60                       # number of demand (read+write) MSHR misses
system.l2.demand_mshr_misses::cpu.data             46                       # number of demand (read+write) MSHR misses
system.l2.demand_mshr_misses::total               106                       # number of demand (read+write) MSHR misses
system.l2.overall_mshr_misses::cpu.inst            60                       # number of overall MSHR misses
system.l2.overall_mshr_misses::cpu.data            46                       # number of overall MSHR misses
system.l2.overall_mshr_misses::total              106                       # number of overall MSHR misses
system.l2.ReadReq_mshr_miss_latency::cpu.inst      2416000                       # number of ReadReq MSHR miss cycles
system.l2.ReadReq_mshr_miss_latency::cpu.data      1648500                       # number of ReadReq MSHR miss cycles
system.l2.ReadReq_mshr_miss_latency::total      4064500                       # number of ReadReq MSHR miss cycles
system.l2.ReadExReq_mshr_miss_latency::cpu.data       207500                       # number of ReadExReq MSHR miss cycles
system.l2.ReadExReq_mshr_miss_latency::total       207500                       # number of ReadExReq MSHR miss cycles
system.l2.demand_mshr_miss_latency::cpu.inst      2416000                       # number of demand (read+write) MSHR miss cycles
system.l2.demand_mshr_miss_latency::cpu.data      1856000                       # number of demand (read+write) MSHR miss cycles
system.l2.demand_mshr_miss_latency::total      4272000                       # number of demand (read+write) MSHR miss cycles
system.l2.overall_mshr_miss_latency::cpu.inst      2416000                       # number of overall MSHR miss cycles
system.l2.overall_mshr_miss_latency::cpu.data      1856000                       # number of overall MSHR miss cycles
system.l2.overall_mshr_miss_latency::total      4272000                       # number of overall MSHR miss cycles
system.l2.ReadReq_mshr_miss_rate::cpu.inst            1                       # mshr miss rate for ReadReq accesses
system.l2.ReadReq_mshr_miss_rate::cpu.data            1                       # mshr miss rate for ReadReq accesses
system.l2.ReadReq_mshr_miss_rate::total             1                       # mshr miss rate for ReadReq accesses
system.l2.ReadExReq_mshr_miss_rate::cpu.data            1                       # mshr miss rate for ReadExReq accesses
system.l2.ReadExReq_mshr_miss_rate::total            1                       # mshr miss rate for ReadExReq accesses
system.l2.demand_mshr_miss_rate::cpu.inst            1                       # mshr miss rate for demand accesses
system.l2.demand_mshr_miss_rate::cpu.data            1                       # mshr miss rate for demand accesses
system.l2.demand_mshr_miss_rate::total              1                       # mshr miss rate for demand accesses
system.l2.overall_mshr_miss_rate::cpu.inst            1                       # mshr miss rate for overall accesses
system.l2.overall_mshr_miss_rate::cpu.data            1                       # mshr miss rate for overall accesses
system.l2.overall_mshr_miss_rate::total             1                       # mshr miss rate for overall accesses
system.l2.ReadReq_avg_mshr_miss_latency::cpu.inst 40266.666667                       # average ReadReq mshr miss latency
system.l2.ReadReq_avg_mshr_miss_latency::cpu.data 40207.317073                       # average ReadReq mshr miss latency
system.l2.ReadReq_avg_mshr_miss_latency::total 40242.574257                       # average ReadReq mshr miss latency
system.l2.ReadExReq_avg_mshr_miss_latency::cpu.data        41500                       # average ReadExReq mshr miss latency
system.l2.ReadExReq_avg_mshr_miss_latency::total        41500                       # average ReadExReq mshr miss latency
system.l2.demand_avg_mshr_miss_latency::cpu.inst 40266.666667                       # average overall mshr miss latency
system.l2.demand_avg_mshr_miss_latency::cpu.data 40347.826087                       # average overall mshr miss latency
system.l2.demand_avg_mshr_miss_latency::total 40301.886792                       # average overall mshr miss latency
system.l2.overall_avg_mshr_miss_latency::cpu.inst 40266.666667                       # average overall mshr miss latency
system.l2.overall_avg_mshr_miss_latency::cpu.data 40347.826087                       # average overall mshr miss latency
system.l2.overall_avg_mshr_miss_latency::total 40301.886792                       # average overall mshr miss latency
system.l2.no_allocate_misses                        0                       # Number of misses that were no-allocate
system.cpu.branchPred.lookups                21239972                       # Number of BP lookups
system.cpu.branchPred.condPredicted          21239972                       # Number of conditional branches predicted
system.cpu.branchPred.condIncorrect           2069939                       # Number of conditional branches incorrect
system.cpu.branchPred.BTBLookups             15064190                       # Number of BTB lookups
system.cpu.branchPred.BTBHits                14931805                       # Number of BTB hits
system.cpu.branchPred.BTBCorrect                    0                       # Number of correct BTB predictions (this stat may not work properly.
system.cpu.branchPred.BTBHitPct             99.121194                       # BTB Hit Percentage
system.cpu.branchPred.usedRAS                       0                       # Number of times the RAS was used to get a target.
system.cpu.branchPred.RASInCorrect                  0                       # Number of incorrect RAS predictions.
system.cpu.workload.num_syscalls                    0                       # Number of system calls
system.cpu.numCycles                        401483862                       # number of cpu cycles simulated
system.cpu.numWorkItemsStarted                      0                       # number of work items this cpu started
system.cpu.numWorkItemsCompleted                    0                       # number of work items this cpu completed
system.cpu.fetch.icacheStallCycles           21957235                       # Number of cycles fetch is stalled on an Icache miss
system.cpu.fetch.Insts                      104329961                       # Number of instructions fetch has processed
system.cpu.fetch.Branches                    21239972                       # Number of branches that fetch encountered
system.cpu.fetch.predictedBranches           14931805                       # Number of branches that fetch has predicted taken
system.cpu.fetch.Cycles                      98348868                       # Number of cycles fetch has run and was not squashing or blocked
system.cpu.fetch.SquashCycles                 4139878                       # Number of cycles fetch has spent squashing
system.cpu.fetch.BlockedCycles              279099664                       # Number of cycles fetch has spent blocked
system.cpu.fetch.CacheLines                  20479419                       # Number of cache lines fetched
system.cpu.fetch.IcacheSquashes                154298                       # Number of outstanding Icache misses that were squashed
system.cpu.fetch.rateDist::samples          401475706                       # Number of instructions fetched each cycle (Total)
system.cpu.fetch.rateDist::mean              0.448367                       # Number of instructions fetched each cycle (Total)
system.cpu.fetch.rateDist::stdev             0.813216                       # Number of instructions fetched each cycle (Total)
system.cpu.fetch.rateDist::underflows               0      0.00%      0.00% # Number of instructions fetched each cycle (Total)
system.cpu.fetch.rateDist::0                304569992     75.86%     75.86% # Number of instructions fetched each cycle (Total)
system.cpu.fetch.rateDist::1                 13803004      3.44%     79.30% # Number of instructions fetched each cycle (Total)
system.cpu.fetch.rateDist::2                 83102710     20.70%    100.00% # Number of instructions fetched each cycle (Total)
system.cpu.fetch.rateDist::overflows                0      0.00%    100.00% # Number of instructions fetched each cycle (Total)
system.cpu.fetch.rateDist::min_value                0                       # Number of instructions fetched each cycle (Total)
system.cpu.fetch.rateDist::max_value                2                       # Number of instructions fetched each cycle (Total)
system.cpu.fetch.rateDist::total            401475706                       # Number of instructions fetched each cycle (Total)
system.cpu.fetch.branchRate                  0.052904                       # Number of branch fetches per cycle
system.cpu.fetch.rate                        0.259861                       # Number of inst fetches per cycle
system.cpu.decode.IdleCycles                 82424900                       # Number of cycles decode is idle
system.cpu.decode.BlockedCycles             220963536                       # Number of cycles decode is blocked
system.cpu.decode.RunCycles                  70731709                       # Number of cycles decode is running
system.cpu.decode.UnblockCycles              25285619                       # Number of cycles decode is unblocking
system.cpu.decode.SquashCycles                2069939                       # Number of cycles decode is squashing
system.cpu.decode.DecodedInsts              178302547                       # Number of instructions handled by decode
system.cpu.rename.SquashCycles                2069939                       # Number of cycles rename is squashing
system.cpu.rename.IdleCycles                103238128                       # Number of cycles rename is idle
system.cpu.rename.BlockCycles               175651974                       # Number of cycles rename is blocking
system.cpu.rename.serializeStallCycles              0                       # count of cycles rename stalled for serializing inst
system.cpu.rename.RunCycles                  39212165                       # Number of cycles rename is running
system.cpu.rename.UnblockCycles              81303499                       # Number of cycles rename is unblocking
system.cpu.rename.RenamedInsts              177244202                       # Number of instructions processed by rename
system.cpu.rename.IQFullEvents               41524941                       # Number of times rename has blocked due to IQ full
system.cpu.rename.RenamedOperands           237202637                       # Number of destination operands rename has renamed
system.cpu.rename.RenameLookups             445126920                       # Number of register rename lookups that rename has made
system.cpu.rename.int_rename_lookups        445126920                       # Number of integer rename lookups
system.cpu.rename.CommittedMaps             232636640                       # Number of HB maps that are committed
system.cpu.rename.UndoneMaps                  4565990                       # Number of HB maps that are undone due to squashing
system.cpu.rename.serializingInsts                  0                       # count of serializing insts renamed
system.cpu.rename.tempSerializingInsts              0                       # count of temporary serializing insts renamed
system.cpu.rename.skidInsts                 114619332                       # count of insts added to the skid buffer
system.cpu.memDep0.insertedLoads             17701650                       # Number of loads inserted to the mem dependence unit.
system.cpu.memDep0.insertedStores             4961335                       # Number of stores inserted to the mem dependence unit.
system.cpu.memDep0.conflictingLoads                 0                       # Number of conflicting loads.
system.cpu.memDep0.conflictingStores                0                       # Number of conflicting stores.
system.cpu.iq.iqInstsAdded                  175614128                       # Number of instructions added to the IQ (excludes non-spec)
system.cpu.iq.iqInstsIssued                 175379340                       # Number of instructions issued
system.cpu.iq.iqSquashedInstsIssued            174049                       # Number of squashed instructions issued
system.cpu.iq.iqSquashedInstsExamined          587410                       # Number of squashed instructions iterated over during squash; mainly for profiling
system.cpu.iq.iqSquashedOperandsExamined       705293                       # Number of squashed operands that are examined and possibly removed from graph
system.cpu.iq.issued_per_cycle::samples     401475706                       # Number of insts issued each cycle
system.cpu.iq.issued_per_cycle::mean         0.436837                       # Number of insts issued each cycle
system.cpu.iq.issued_per_cycle::stdev        0.515497                       # Number of insts issued each cycle
system.cpu.iq.issued_per_cycle::underflows            0      0.00%      0.00% # Number of insts issued each cycle
system.cpu.iq.issued_per_cycle::0           230056238     57.30%     57.30% # Number of insts issued each cycle
system.cpu.iq.issued_per_cycle::1           167459596     41.71%     99.01% # Number of insts issued each cycle
system.cpu.iq.issued_per_cycle::2             3959872      0.99%    100.00% # Number of insts issued each cycle
system.cpu.iq.issued_per_cycle::overflows            0      0.00%    100.00% # Number of insts issued each cycle
system.cpu.iq.issued_per_cycle::min_value            0                       # Number of insts issued each cycle
system.cpu.iq.issued_per_cycle::max_value            2                       # Number of insts issued each cycle
system.cpu.iq.issued_per_cycle::total       401475706                       # Number of insts issued each cycle
system.cpu.iq.fu_full::No_OpClass                   0      0.00%      0.00% # attempts to use FU when none available
system.cpu.iq.fu_full::IntAlu                25417641    100.00%    100.00% # attempts to use FU when none available
system.cpu.iq.fu_full::IntMult                      0      0.00%    100.00% # attempts to use FU when none available
system.cpu.iq.fu_full::IntDiv                       0      0.00%    100.00% # attempts to use FU when none available
system.cpu.iq.fu_full::FloatAdd                     0      0.00%    100.00% # attempts to use FU when none available
system.cpu.iq.fu_full::FloatCmp                     0      0.00%    100.00% # attempts to use FU when none available
system.cpu.iq.fu_full::FloatCvt                     0      0.00%    100.00% # attempts to use FU when none available
system.cpu.iq.fu_full::FloatMult                    0      0.00%    100.00% # attempts to use FU when none available
system.cpu.iq.fu_full::FloatDiv                     0      0.00%    100.00% # attempts to use FU when none available
system.cpu.iq.fu_full::FloatSqrt                    0      0.00%    100.00% # attempts to use FU when none available
system.cpu.iq.fu_full::SimdAdd                      0      0.00%    100.00% # attempts to use FU when none available
system.cpu.iq.fu_full::SimdAddAcc                   0      0.00%    100.00% # attempts to use FU when none available
system.cpu.iq.fu_full::SimdAlu                      0      0.00%    100.00% # attempts to use FU when none available
system.cpu.iq.fu_full::SimdCmp                      0      0.00%    100.00% # attempts to use FU when none available
system.cpu.iq.fu_full::SimdCvt                      0      0.00%    100.00% # attempts to use FU when none available
system.cpu.iq.fu_full::SimdMisc                     0      0.00%    100.00% # attempts to use FU when none available
system.cpu.iq.fu_full::SimdMult                     0      0.00%    100.00% # attempts to use FU when none available
system.cpu.iq.fu_full::SimdMultAcc                  0      0.00%    100.00% # attempts to use FU when none available
system.cpu.iq.fu_full::SimdShift                    0      0.00%    100.00% # attempts to use FU when none available
system.cpu.iq.fu_full::SimdShiftAcc                 0      0.00%    100.00% # attempts to use FU when none available
system.cpu.iq.fu_full::SimdSqrt                     0      0.00%    100.00% # attempts to use FU when none available
system.cpu.iq.fu_full::SimdFloatAdd                 0      0.00%    100.00% # attempts to use FU when none available
system.cpu.iq.fu_full::SimdFloatAlu                 0      0.00%    100.00% # attempts to use FU when none available
system.cpu.iq.fu_full::SimdFloatCmp                 0      0.00%    100.00% # attempts to use FU when none available
system.cpu.iq.fu_full::SimdFloatCvt                 0      0.00%    100.00% # attempts to use FU when none available
system.cpu.iq.fu_full::SimdFloatDiv                 0      0.00%    100.00% # attempts to use FU when none available
system.cpu.iq.fu_full::SimdFloatMisc                0      0.00%    100.00% # attempts to use FU when none available
system.cpu.iq.fu_full::SimdFloatMult                0      0.00%    100.00% # attempts to use FU when none available
system.cpu.iq.fu_full::SimdFloatMultAcc             0      0.00%    100.00% # attempts to use FU when none available
system.cpu.iq.fu_full::SimdFloatSqrt                0      0.00%    100.00% # attempts to use FU when none available
system.cpu.iq.fu_full::MemRead                      0      0.00%    100.00% # attempts to use FU when none available
system.cpu.iq.fu_full::MemWrite                     0      0.00%    100.00% # attempts to use FU when none available
system.cpu.iq.fu_full::IprAccess                    0      0.00%    100.00% # attempts to use FU when none available
system.cpu.iq.fu_full::InstPrefetch                 0      0.00%    100.00% # attempts to use FU when none available
system.cpu.iq.FU_type_0::No_OpClass            191923      0.11%      0.11% # Type of FU issued
system.cpu.iq.FU_type_0::IntAlu             152552612     86.98%     87.09% # Type of FU issued
system.cpu.iq.FU_type_0::IntMult                    0      0.00%     87.09% # Type of FU issued
system.cpu.iq.FU_type_0::IntDiv                     0      0.00%     87.09% # Type of FU issued
system.cpu.iq.FU_type_0::FloatAdd                   0      0.00%     87.09% # Type of FU issued
system.cpu.iq.FU_type_0::FloatCmp                   0      0.00%     87.09% # Type of FU issued
system.cpu.iq.FU_type_0::FloatCvt                   0      0.00%     87.09% # Type of FU issued
system.cpu.iq.FU_type_0::FloatMult                  0      0.00%     87.09% # Type of FU issued
system.cpu.iq.FU_type_0::FloatDiv                   0      0.00%     87.09% # Type of FU issued
system.cpu.iq.FU_type_0::FloatSqrt                  0      0.00%     87.09% # Type of FU issued
system.cpu.iq.FU_type_0::SimdAdd                    0      0.00%     87.09% # Type of FU issued
system.cpu.iq.FU_type_0::SimdAddAcc                 0      0.00%     87.09% # Type of FU issued
system.cpu.iq.FU_type_0::SimdAlu                    0      0.00%     87.09% # Type of FU issued
system.cpu.iq.FU_type_0::SimdCmp                    0      0.00%     87.09% # Type of FU issued
system.cpu.iq.FU_type_0::SimdCvt                    0      0.00%     87.09% # Type of FU issued
system.cpu.iq.FU_type_0::SimdMisc                   0      0.00%     87.09% # Type of FU issued
system.cpu.iq.FU_type_0::SimdMult                   0      0.00%     87.09% # Type of FU issued
system.cpu.iq.FU_type_0::SimdMultAcc                0      0.00%     87.09% # Type of FU issued
system.cpu.iq.FU_type_0::SimdShift                  0      0.00%     87.09% # Type of FU issued
system.cpu.iq.FU_type_0::SimdShiftAcc               0      0.00%     87.09% # Type of FU issued
system.cpu.iq.FU_type_0::SimdSqrt                   0      0.00%     87.09% # Type of FU issued
system.cpu.iq.FU_type_0::SimdFloatAdd               0      0.00%     87.09% # Type of FU issued
system.cpu.iq.FU_type_0::SimdFloatAlu               0      0.00%     87.09% # Type of FU issued
system.cpu.iq.FU_type_0::SimdFloatCmp               0      0.00%     87.09% # Type of FU issued
system.cpu.iq.FU_type_0::SimdFloatCvt               0      0.00%     87.09% # Type of FU issued
system.cpu.iq.FU_type_0::SimdFloatDiv               0      0.00%     87.09% # Type of FU issued
system.cpu.iq.FU_type_0::SimdFloatMisc              0      0.00%     87.09% # Type of FU issued
system.cpu.iq.FU_type_0::SimdFloatMult              0      0.00%     87.09% # Type of FU issued
system.cpu.iq.FU_type_0::SimdFloatMultAcc            0      0.00%     87.09% # Type of FU issued
system.cpu.iq.FU_type_0::SimdFloatSqrt              0      0.00%     87.09% # Type of FU issued
system.cpu.iq.FU_type_0::MemRead             17673470     10.08%     97.17% # Type of FU issued
system.cpu.iq.FU_type_0::MemWrite             4961335      2.83%    100.00% # Type of FU issued
system.cpu.iq.FU_type_0::IprAccess                  0      0.00%    100.00% # Type of FU issued
system.cpu.iq.FU_type_0::InstPrefetch               0      0.00%    100.00% # Type of FU issued
system.cpu.iq.FU_type_0::total              175379340                       # Type of FU issued
system.cpu.iq.rate                           0.436828                       # Inst issue rate
system.cpu.iq.fu_busy_cnt                    25417641                       # FU busy when requested
system.cpu.iq.fu_busy_rate                   0.144930                       # FU busy rate (busy events/executed inst)
system.cpu.iq.int_inst_queue_reads          777826075                       # Number of integer instruction queue reads
system.cpu.iq.int_inst_queue_writes         176201538                       # Number of integer instruction queue writes
system.cpu.iq.int_inst_queue_wakeup_accesses    174381872                       # Number of integer instruction queue wakeup accesses
system.cpu.iq.fp_inst_queue_reads                   0                       # Number of floating instruction queue reads
system.cpu.iq.fp_inst_queue_writes                  0                       # Number of floating instruction queue writes
system.cpu.iq.fp_inst_queue_wakeup_accesses            0                       # Number of floating instruction queue wakeup accesses
system.cpu.iq.int_alu_accesses              200605058                       # Number of integer alu accesses
system.cpu.iq.fp_alu_accesses                       0                       # Number of floating point alu accesses
system.cpu.iew.lsq.thread0.forwLoads             1383                       # Number of loads that had data forwarded from stores
system.cpu.iew.lsq.thread0.invAddrLoads             0                       # Number of loads ignored due to an invalid address
system.cpu.iew.lsq.thread0.squashedLoads       139984                       # Number of loads squashed
system.cpu.iew.lsq.thread0.ignoredResponses            0                       # Number of memory responses ignored because the instruction is squashed
system.cpu.iew.lsq.thread0.memOrderViolation            0                       # Number of memory ordering violations
system.cpu.iew.lsq.thread0.squashedStores         4917                       # Number of stores squashed
system.cpu.iew.lsq.thread0.invAddrSwpfs             0                       # Number of software prefetches ignored due to an invalid address
system.cpu.iew.lsq.thread0.blockedLoads             0                       # Number of blocked loads due to partial load-store forwarding
system.cpu.iew.lsq.thread0.rescheduledLoads            0                       # Number of loads that were rescheduled
system.cpu.iew.lsq.thread0.cacheBlocked             0                       # Number of times an access to memory failed due to the cache being blocked
system.cpu.iew.iewIdleCycles                        0                       # Number of cycles IEW is idle
system.cpu.iew.iewSquashCycles                2069939                       # Number of cycles IEW is squashing
system.cpu.iew.iewBlockCycles                24990687                       # Number of cycles IEW is blocking
system.cpu.iew.iewUnblockCycles               6975427                       # Number of cycles IEW is unblocking
system.cpu.iew.iewDispatchedInsts           175614128                       # Number of instructions dispatched to IQ
system.cpu.iew.iewDispSquashedInsts           1144452                       # Number of squashed instructions skipped by dispatch
system.cpu.iew.iewDispLoadInsts              17701650                       # Number of dispatched load instructions
system.cpu.iew.iewDispStoreInsts              4961335                       # Number of dispatched store instructions
system.cpu.iew.iewDispNonSpecInsts                  0                       # Number of dispatched non-speculative instructions
system.cpu.iew.iewIQFullEvents                3334100                       # Number of times the IQ has become full, causing a stall
system.cpu.iew.iewLSQFullEvents                     0                       # Number of times the LSQ has become full, causing a stall
system.cpu.iew.memOrderViolationEvents              0                       # Number of memory order violations
system.cpu.iew.predictedTakenIncorrect        1584633                       # Number of branches that were predicted taken incorrectly
system.cpu.iew.predictedNotTakenIncorrect       485306                       # Number of branches that were predicted not taken incorrectly
system.cpu.iew.branchMispredicts              2069939                       # Number of branch mispredicts detected at execute
system.cpu.iew.iewExecutedInsts             174393305                       # Number of executed instructions
system.cpu.iew.iewExecLoadInsts              17573099                       # Number of load instructions executed
system.cpu.iew.iewExecSquashedInsts            986034                       # Number of squashed instructions skipped in execute
system.cpu.iew.exec_swp                             0                       # number of swp insts executed
system.cpu.iew.exec_nop                             0                       # number of nop insts executed
system.cpu.iew.exec_refs                     22530104                       # number of memory reference insts executed
system.cpu.iew.exec_branches                 21060097                       # Number of branches executed
system.cpu.iew.exec_stores                    4957005                       # Number of stores executed
system.cpu.iew.exec_rate                     0.434372                       # Inst execution rate
system.cpu.iew.wb_sent                      174381872                       # cumulative count of insts sent to commit
system.cpu.iew.wb_count                     174381872                       # cumulative count of insts written-back
system.cpu.iew.wb_producers                  39888887                       # num instructions producing a value
system.cpu.iew.wb_consumers                  42823828                       # num instructions consuming a value
system.cpu.iew.wb_penalized                         0                       # number of instrctions required to write to 'other' IQ
system.cpu.iew.wb_rate                       0.434343                       # insts written-back per cycle
system.cpu.iew.wb_fanout                     0.931465                       # average fanout of values written-back
system.cpu.iew.wb_penalized_rate                    0                       # fraction of instructions written-back that wrote to 'other' IQ
system.cpu.commit.commitSquashedInsts         1620685                       # The number of squashed insts skipped by commit
system.cpu.commit.branchMispredicts           2069939                       # The number of times a branch was mispredicted
system.cpu.commit.committed_per_cycle::samples    399405767                       # Number of insts commited each cycle
system.cpu.commit.committed_per_cycle::mean     0.435631                       # Number of insts commited each cycle
system.cpu.commit.committed_per_cycle::stdev     0.522203                       # Number of insts commited each cycle
system.cpu.commit.committed_per_cycle::underflows            0      0.00%      0.00% # Number of insts commited each cycle
system.cpu.commit.committed_per_cycle::0    230772166     57.78%     57.78% # Number of insts commited each cycle
system.cpu.commit.committed_per_cycle::1    163273761     40.88%     98.66% # Number of insts commited each cycle
system.cpu.commit.committed_per_cycle::2      5359840      1.34%    100.00% # Number of insts commited each cycle
system.cpu.commit.committed_per_cycle::overflows            0      0.00%    100.00% # Number of insts commited each cycle
system.cpu.commit.committed_per_cycle::min_value            0                       # Number of insts commited each cycle
system.cpu.commit.committed_per_cycle::max_value            2                       # Number of insts commited each cycle
system.cpu.commit.committed_per_cycle::total    399405767                       # Number of insts commited each cycle
system.cpu.commit.committedInsts            100000000                       # Number of instructions committed
system.cpu.commit.committedOps              173993441                       # Number of ops (including micro ops) committed
system.cpu.commit.swp_count                         0                       # Number of s/w prefetches committed
system.cpu.commit.refs                       22518084                       # Number of memory references committed
system.cpu.commit.loads                      17561666                       # Number of loads committed
system.cpu.commit.membars                           0                       # Number of memory barriers committed
system.cpu.commit.branches                   21060097                       # Number of branches committed
system.cpu.commit.fp_insts                          0                       # Number of committed floating point instructions.
system.cpu.commit.int_insts                 173487666                       # Number of committed integer instructions.
system.cpu.commit.function_calls                    0                       # Number of function calls committed.
system.cpu.commit.bw_lim_events               5359840                       # number cycles where commit BW limit reached
system.cpu.commit.bw_limited                        0                       # number of insts not committed due to BW limits
system.cpu.rob.rob_reads                    569660053                       # The number of ROB reads
system.cpu.rob.rob_writes                   353298193                       # The number of ROB writes
system.cpu.timesIdled                              90                       # Number of times that the entire CPU went into an idle state and unscheduled itself
system.cpu.idleCycles                            8156                       # Total number of cycles that the CPU has spent unscheduled due to idling
system.cpu.committedInsts                   100000000                       # Number of Instructions Simulated
system.cpu.committedOps                     173993441                       # Number of Ops (including micro ops) Simulated
system.cpu.committedInsts_total             100000000                       # Number of Instructions Simulated
system.cpu.cpi                               4.014839                       # CPI: Cycles Per Instruction
system.cpu.cpi_total                         4.014839                       # CPI: Total CPI of All Threads
system.cpu.ipc                               0.249076                       # IPC: Instructions Per Cycle
system.cpu.ipc_total                         0.249076                       # IPC: Total IPC of All Threads
system.cpu.int_regfile_reads                376889315                       # number of integer regfile reads
system.cpu.int_regfile_writes               233035055                       # number of integer regfile writes
system.cpu.misc_regfile_reads                62806670                       # number of misc regfile reads
system.cpu.itb_walker_cache.replacements            0                       # number of replacements
system.cpu.itb_walker_cache.tagsinuse               0                       # Cycle average of tags in use
system.cpu.itb_walker_cache.total_refs              0                       # Total number of references to valid blocks.
system.cpu.itb_walker_cache.sampled_refs            0                       # Sample count of references to valid blocks.
system.cpu.itb_walker_cache.avg_refs              nan                       # Average number of references to valid blocks.
system.cpu.itb_walker_cache.warmup_cycle            0                       # Cycle when the warmup percentage was hit.
system.cpu.itb_walker_cache.blocked_cycles::no_mshrs            0                       # number of cycles access was blocked
system.cpu.itb_walker_cache.blocked_cycles::no_targets            0                       # number of cycles access was blocked
system.cpu.itb_walker_cache.blocked::no_mshrs            0                       # number of cycles access was blocked
system.cpu.itb_walker_cache.blocked::no_targets            0                       # number of cycles access was blocked
system.cpu.itb_walker_cache.avg_blocked_cycles::no_mshrs          nan                       # average number of cycles each access was blocked
system.cpu.itb_walker_cache.avg_blocked_cycles::no_targets          nan                       # average number of cycles each access was blocked
system.cpu.itb_walker_cache.fast_writes             0                       # number of fast writes performed
system.cpu.itb_walker_cache.cache_copies            0                       # number of cache copies performed
system.cpu.itb_walker_cache.no_allocate_misses            0                       # Number of misses that were no-allocate
system.cpu.dtb_walker_cache.replacements            0                       # number of replacements
system.cpu.dtb_walker_cache.tagsinuse               0                       # Cycle average of tags in use
system.cpu.dtb_walker_cache.total_refs              0                       # Total number of references to valid blocks.
system.cpu.dtb_walker_cache.sampled_refs            0                       # Sample count of references to valid blocks.
system.cpu.dtb_walker_cache.avg_refs              nan                       # Average number of references to valid blocks.
system.cpu.dtb_walker_cache.warmup_cycle            0                       # Cycle when the warmup percentage was hit.
system.cpu.dtb_walker_cache.blocked_cycles::no_mshrs            0                       # number of cycles access was blocked
system.cpu.dtb_walker_cache.blocked_cycles::no_targets            0                       # number of cycles access was blocked
system.cpu.dtb_walker_cache.blocked::no_mshrs            0                       # number of cycles access was blocked
system.cpu.dtb_walker_cache.blocked::no_targets            0                       # number of cycles access was blocked
system.cpu.dtb_walker_cache.avg_blocked_cycles::no_mshrs          nan                       # average number of cycles each access was blocked
system.cpu.dtb_walker_cache.avg_blocked_cycles::no_targets          nan                       # average number of cycles each access was blocked
system.cpu.dtb_walker_cache.fast_writes             0                       # number of fast writes performed
system.cpu.dtb_walker_cache.cache_copies            0                       # number of cache copies performed
system.cpu.dtb_walker_cache.no_allocate_misses            0                       # Number of misses that were no-allocate
system.cpu.icache.replacements                      0                       # number of replacements
system.cpu.icache.tagsinuse                 59.954011                       # Cycle average of tags in use
system.cpu.icache.total_refs                 20479354                       # Total number of references to valid blocks.
system.cpu.icache.sampled_refs                     60                       # Sample count of references to valid blocks.
system.cpu.icache.avg_refs               341322.566667                       # Average number of references to valid blocks.
system.cpu.icache.warmup_cycle                      0                       # Cycle when the warmup percentage was hit.
system.cpu.icache.occ_blocks::cpu.inst      59.954011                       # Average occupied blocks per requestor
system.cpu.icache.occ_percent::cpu.inst      0.117098                       # Average percentage of cache occupancy
system.cpu.icache.occ_percent::total         0.117098                       # Average percentage of cache occupancy
system.cpu.icache.ReadReq_hits::cpu.inst     20479354                       # number of ReadReq hits
system.cpu.icache.ReadReq_hits::total        20479354                       # number of ReadReq hits
system.cpu.icache.demand_hits::cpu.inst      20479354                       # number of demand (read+write) hits
system.cpu.icache.demand_hits::total         20479354                       # number of demand (read+write) hits
system.cpu.icache.overall_hits::cpu.inst     20479354                       # number of overall hits
system.cpu.icache.overall_hits::total        20479354                       # number of overall hits
system.cpu.icache.ReadReq_misses::cpu.inst           65                       # number of ReadReq misses
system.cpu.icache.ReadReq_misses::total            65                       # number of ReadReq misses
system.cpu.icache.demand_misses::cpu.inst           65                       # number of demand (read+write) misses
system.cpu.icache.demand_misses::total             65                       # number of demand (read+write) misses
system.cpu.icache.overall_misses::cpu.inst           65                       # number of overall misses
system.cpu.icache.overall_misses::total            65                       # number of overall misses
system.cpu.icache.ReadReq_miss_latency::cpu.inst      3529500                       # number of ReadReq miss cycles
system.cpu.icache.ReadReq_miss_latency::total      3529500                       # number of ReadReq miss cycles
system.cpu.icache.demand_miss_latency::cpu.inst      3529500                       # number of demand (read+write) miss cycles
system.cpu.icache.demand_miss_latency::total      3529500                       # number of demand (read+write) miss cycles
system.cpu.icache.overall_miss_latency::cpu.inst      3529500                       # number of overall miss cycles
system.cpu.icache.overall_miss_latency::total      3529500                       # number of overall miss cycles
system.cpu.icache.ReadReq_accesses::cpu.inst     20479419                       # number of ReadReq accesses(hits+misses)
system.cpu.icache.ReadReq_accesses::total     20479419                       # number of ReadReq accesses(hits+misses)
system.cpu.icache.demand_accesses::cpu.inst     20479419                       # number of demand (read+write) accesses
system.cpu.icache.demand_accesses::total     20479419                       # number of demand (read+write) accesses
system.cpu.icache.overall_accesses::cpu.inst     20479419                       # number of overall (read+write) accesses
system.cpu.icache.overall_accesses::total     20479419                       # number of overall (read+write) accesses
system.cpu.icache.ReadReq_miss_rate::cpu.inst     0.000003                       # miss rate for ReadReq accesses
system.cpu.icache.ReadReq_miss_rate::total     0.000003                       # miss rate for ReadReq accesses
system.cpu.icache.demand_miss_rate::cpu.inst     0.000003                       # miss rate for demand accesses
system.cpu.icache.demand_miss_rate::total     0.000003                       # miss rate for demand accesses
system.cpu.icache.overall_miss_rate::cpu.inst     0.000003                       # miss rate for overall accesses
system.cpu.icache.overall_miss_rate::total     0.000003                       # miss rate for overall accesses
system.cpu.icache.ReadReq_avg_miss_latency::cpu.inst        54300                       # average ReadReq miss latency
system.cpu.icache.ReadReq_avg_miss_latency::total        54300                       # average ReadReq miss latency
system.cpu.icache.demand_avg_miss_latency::cpu.inst        54300                       # average overall miss latency
system.cpu.icache.demand_avg_miss_latency::total        54300                       # average overall miss latency
system.cpu.icache.overall_avg_miss_latency::cpu.inst        54300                       # average overall miss latency
system.cpu.icache.overall_avg_miss_latency::total        54300                       # average overall miss latency
system.cpu.icache.blocked_cycles::no_mshrs            0                       # number of cycles access was blocked
system.cpu.icache.blocked_cycles::no_targets            0                       # number of cycles access was blocked
system.cpu.icache.blocked::no_mshrs                 0                       # number of cycles access was blocked
system.cpu.icache.blocked::no_targets               0                       # number of cycles access was blocked
system.cpu.icache.avg_blocked_cycles::no_mshrs          nan                       # average number of cycles each access was blocked
system.cpu.icache.avg_blocked_cycles::no_targets          nan                       # average number of cycles each access was blocked
system.cpu.icache.fast_writes                       0                       # number of fast writes performed
system.cpu.icache.cache_copies                      0                       # number of cache copies performed
system.cpu.icache.ReadReq_mshr_hits::cpu.inst            5                       # number of ReadReq MSHR hits
system.cpu.icache.ReadReq_mshr_hits::total            5                       # number of ReadReq MSHR hits
system.cpu.icache.demand_mshr_hits::cpu.inst            5                       # number of demand (read+write) MSHR hits
system.cpu.icache.demand_mshr_hits::total            5                       # number of demand (read+write) MSHR hits
system.cpu.icache.overall_mshr_hits::cpu.inst            5                       # number of overall MSHR hits
system.cpu.icache.overall_mshr_hits::total            5                       # number of overall MSHR hits
system.cpu.icache.ReadReq_mshr_misses::cpu.inst           60                       # number of ReadReq MSHR misses
system.cpu.icache.ReadReq_mshr_misses::total           60                       # number of ReadReq MSHR misses
system.cpu.icache.demand_mshr_misses::cpu.inst           60                       # number of demand (read+write) MSHR misses
system.cpu.icache.demand_mshr_misses::total           60                       # number of demand (read+write) MSHR misses
system.cpu.icache.overall_mshr_misses::cpu.inst           60                       # number of overall MSHR misses
system.cpu.icache.overall_mshr_misses::total           60                       # number of overall MSHR misses
system.cpu.icache.ReadReq_mshr_miss_latency::cpu.inst      3210500                       # number of ReadReq MSHR miss cycles
system.cpu.icache.ReadReq_mshr_miss_latency::total      3210500                       # number of ReadReq MSHR miss cycles
system.cpu.icache.demand_mshr_miss_latency::cpu.inst      3210500                       # number of demand (read+write) MSHR miss cycles
system.cpu.icache.demand_mshr_miss_latency::total      3210500                       # number of demand (read+write) MSHR miss cycles
system.cpu.icache.overall_mshr_miss_latency::cpu.inst      3210500                       # number of overall MSHR miss cycles
system.cpu.icache.overall_mshr_miss_latency::total      3210500                       # number of overall MSHR miss cycles
system.cpu.icache.ReadReq_mshr_miss_rate::cpu.inst     0.000003                       # mshr miss rate for ReadReq accesses
system.cpu.icache.ReadReq_mshr_miss_rate::total     0.000003                       # mshr miss rate for ReadReq accesses
system.cpu.icache.demand_mshr_miss_rate::cpu.inst     0.000003                       # mshr miss rate for demand accesses
system.cpu.icache.demand_mshr_miss_rate::total     0.000003                       # mshr miss rate for demand accesses
system.cpu.icache.overall_mshr_miss_rate::cpu.inst     0.000003                       # mshr miss rate for overall accesses
system.cpu.icache.overall_mshr_miss_rate::total     0.000003                       # mshr miss rate for overall accesses
system.cpu.icache.ReadReq_avg_mshr_miss_latency::cpu.inst 53508.333333                       # average ReadReq mshr miss latency
system.cpu.icache.ReadReq_avg_mshr_miss_latency::total 53508.333333                       # average ReadReq mshr miss latency
system.cpu.icache.demand_avg_mshr_miss_latency::cpu.inst 53508.333333                       # average overall mshr miss latency
system.cpu.icache.demand_avg_mshr_miss_latency::total 53508.333333                       # average overall mshr miss latency
system.cpu.icache.overall_avg_mshr_miss_latency::cpu.inst 53508.333333                       # average overall mshr miss latency
system.cpu.icache.overall_avg_mshr_miss_latency::total 53508.333333                       # average overall mshr miss latency
system.cpu.icache.no_allocate_misses                0                       # Number of misses that were no-allocate
system.cpu.dcache.replacements                      0                       # number of replacements
system.cpu.dcache.tagsinuse                 45.979412                       # Cycle average of tags in use
system.cpu.dcache.total_refs                 22528085                       # Total number of references to valid blocks.
system.cpu.dcache.sampled_refs                     46                       # Sample count of references to valid blocks.
system.cpu.dcache.avg_refs               489740.978261                       # Average number of references to valid blocks.
system.cpu.dcache.warmup_cycle                      0                       # Cycle when the warmup percentage was hit.
system.cpu.dcache.occ_blocks::cpu.data      45.979412                       # Average occupied blocks per requestor
system.cpu.dcache.occ_percent::cpu.data      0.089804                       # Average percentage of cache occupancy
system.cpu.dcache.occ_percent::total         0.089804                       # Average percentage of cache occupancy
system.cpu.dcache.ReadReq_hits::cpu.data     17571672                       # number of ReadReq hits
system.cpu.dcache.ReadReq_hits::total        17571672                       # number of ReadReq hits
system.cpu.dcache.WriteReq_hits::cpu.data      4956413                       # number of WriteReq hits
system.cpu.dcache.WriteReq_hits::total        4956413                       # number of WriteReq hits
system.cpu.dcache.demand_hits::cpu.data      22528085                       # number of demand (read+write) hits
system.cpu.dcache.demand_hits::total         22528085                       # number of demand (read+write) hits
system.cpu.dcache.overall_hits::cpu.data     22528085                       # number of overall hits
system.cpu.dcache.overall_hits::total        22528085                       # number of overall hits
system.cpu.dcache.ReadReq_misses::cpu.data           44                       # number of ReadReq misses
system.cpu.dcache.ReadReq_misses::total            44                       # number of ReadReq misses
system.cpu.dcache.WriteReq_misses::cpu.data            5                       # number of WriteReq misses
system.cpu.dcache.WriteReq_misses::total            5                       # number of WriteReq misses
system.cpu.dcache.demand_misses::cpu.data           49                       # number of demand (read+write) misses
system.cpu.dcache.demand_misses::total             49                       # number of demand (read+write) misses
system.cpu.dcache.overall_misses::cpu.data           49                       # number of overall misses
system.cpu.dcache.overall_misses::total            49                       # number of overall misses
system.cpu.dcache.ReadReq_miss_latency::cpu.data      2429000                       # number of ReadReq miss cycles
system.cpu.dcache.ReadReq_miss_latency::total      2429000                       # number of ReadReq miss cycles
system.cpu.dcache.WriteReq_miss_latency::cpu.data       282500                       # number of WriteReq miss cycles
system.cpu.dcache.WriteReq_miss_latency::total       282500                       # number of WriteReq miss cycles
system.cpu.dcache.demand_miss_latency::cpu.data      2711500                       # number of demand (read+write) miss cycles
system.cpu.dcache.demand_miss_latency::total      2711500                       # number of demand (read+write) miss cycles
system.cpu.dcache.overall_miss_latency::cpu.data      2711500                       # number of overall miss cycles
system.cpu.dcache.overall_miss_latency::total      2711500                       # number of overall miss cycles
system.cpu.dcache.ReadReq_accesses::cpu.data     17571716                       # number of ReadReq accesses(hits+misses)
system.cpu.dcache.ReadReq_accesses::total     17571716                       # number of ReadReq accesses(hits+misses)
system.cpu.dcache.WriteReq_accesses::cpu.data      4956418                       # number of WriteReq accesses(hits+misses)
system.cpu.dcache.WriteReq_accesses::total      4956418                       # number of WriteReq accesses(hits+misses)
system.cpu.dcache.demand_accesses::cpu.data     22528134                       # number of demand (read+write) accesses
system.cpu.dcache.demand_accesses::total     22528134                       # number of demand (read+write) accesses
system.cpu.dcache.overall_accesses::cpu.data     22528134                       # number of overall (read+write) accesses
system.cpu.dcache.overall_accesses::total     22528134                       # number of overall (read+write) accesses
system.cpu.dcache.ReadReq_miss_rate::cpu.data     0.000003                       # miss rate for ReadReq accesses
system.cpu.dcache.ReadReq_miss_rate::total     0.000003                       # miss rate for ReadReq accesses
system.cpu.dcache.WriteReq_miss_rate::cpu.data     0.000001                       # miss rate for WriteReq accesses
system.cpu.dcache.WriteReq_miss_rate::total     0.000001                       # miss rate for WriteReq accesses
system.cpu.dcache.demand_miss_rate::cpu.data     0.000002                       # miss rate for demand accesses
system.cpu.dcache.demand_miss_rate::total     0.000002                       # miss rate for demand accesses
system.cpu.dcache.overall_miss_rate::cpu.data     0.000002                       # miss rate for overall accesses
system.cpu.dcache.overall_miss_rate::total     0.000002                       # miss rate for overall accesses
system.cpu.dcache.ReadReq_avg_miss_latency::cpu.data 55204.545455                       # average ReadReq miss latency
system.cpu.dcache.ReadReq_avg_miss_latency::total 55204.545455                       # average ReadReq miss latency
system.cpu.dcache.WriteReq_avg_miss_latency::cpu.data        56500                       # average WriteReq miss latency
system.cpu.dcache.WriteReq_avg_miss_latency::total        56500                       # average WriteReq miss latency
system.cpu.dcache.demand_avg_miss_latency::cpu.data 55336.734694                       # average overall miss latency
system.cpu.dcache.demand_avg_miss_latency::total 55336.734694                       # average overall miss latency
system.cpu.dcache.overall_avg_miss_latency::cpu.data 55336.734694                       # average overall miss latency
system.cpu.dcache.overall_avg_miss_latency::total 55336.734694                       # average overall miss latency
system.cpu.dcache.blocked_cycles::no_mshrs            0                       # number of cycles access was blocked
system.cpu.dcache.blocked_cycles::no_targets            0                       # number of cycles access was blocked
system.cpu.dcache.blocked::no_mshrs                 0                       # number of cycles access was blocked
system.cpu.dcache.blocked::no_targets               0                       # number of cycles access was blocked
system.cpu.dcache.avg_blocked_cycles::no_mshrs          nan                       # average number of cycles each access was blocked
system.cpu.dcache.avg_blocked_cycles::no_targets          nan                       # average number of cycles each access was blocked
system.cpu.dcache.fast_writes                       0                       # number of fast writes performed
system.cpu.dcache.cache_copies                      0                       # number of cache copies performed
system.cpu.dcache.ReadReq_mshr_hits::cpu.data            3                       # number of ReadReq MSHR hits
system.cpu.dcache.ReadReq_mshr_hits::total            3                       # number of ReadReq MSHR hits
system.cpu.dcache.demand_mshr_hits::cpu.data            3                       # number of demand (read+write) MSHR hits
system.cpu.dcache.demand_mshr_hits::total            3                       # number of demand (read+write) MSHR hits
system.cpu.dcache.overall_mshr_hits::cpu.data            3                       # number of overall MSHR hits
system.cpu.dcache.overall_mshr_hits::total            3                       # number of overall MSHR hits
system.cpu.dcache.ReadReq_mshr_misses::cpu.data           41                       # number of ReadReq MSHR misses
system.cpu.dcache.ReadReq_mshr_misses::total           41                       # number of ReadReq MSHR misses
system.cpu.dcache.WriteReq_mshr_misses::cpu.data            5                       # number of WriteReq MSHR misses
system.cpu.dcache.WriteReq_mshr_misses::total            5                       # number of WriteReq MSHR misses
system.cpu.dcache.demand_mshr_misses::cpu.data           46                       # number of demand (read+write) MSHR misses
system.cpu.dcache.demand_mshr_misses::total           46                       # number of demand (read+write) MSHR misses
system.cpu.dcache.overall_mshr_misses::cpu.data           46                       # number of overall MSHR misses
system.cpu.dcache.overall_mshr_misses::total           46                       # number of overall MSHR misses
system.cpu.dcache.ReadReq_mshr_miss_latency::cpu.data      2192000                       # number of ReadReq MSHR miss cycles
system.cpu.dcache.ReadReq_mshr_miss_latency::total      2192000                       # number of ReadReq MSHR miss cycles
system.cpu.dcache.WriteReq_mshr_miss_latency::cpu.data       272500                       # number of WriteReq MSHR miss cycles
system.cpu.dcache.WriteReq_mshr_miss_latency::total       272500                       # number of WriteReq MSHR miss cycles
system.cpu.dcache.demand_mshr_miss_latency::cpu.data      2464500                       # number of demand (read+write) MSHR miss cycles
system.cpu.dcache.demand_mshr_miss_latency::total      2464500                       # number of demand (read+write) MSHR miss cycles
system.cpu.dcache.overall_mshr_miss_latency::cpu.data      2464500                       # number of overall MSHR miss cycles
system.cpu.dcache.overall_mshr_miss_latency::total      2464500                       # number of overall MSHR miss cycles
system.cpu.dcache.ReadReq_mshr_miss_rate::cpu.data     0.000002                       # mshr miss rate for ReadReq accesses
system.cpu.dcache.ReadReq_mshr_miss_rate::total     0.000002                       # mshr miss rate for ReadReq accesses
system.cpu.dcache.WriteReq_mshr_miss_rate::cpu.data     0.000001                       # mshr miss rate for WriteReq accesses
system.cpu.dcache.WriteReq_mshr_miss_rate::total     0.000001                       # mshr miss rate for WriteReq accesses
system.cpu.dcache.demand_mshr_miss_rate::cpu.data     0.000002                       # mshr miss rate for demand accesses
system.cpu.dcache.demand_mshr_miss_rate::total     0.000002                       # mshr miss rate for demand accesses
system.cpu.dcache.overall_mshr_miss_rate::cpu.data     0.000002                       # mshr miss rate for overall accesses
system.cpu.dcache.overall_mshr_miss_rate::total     0.000002                       # mshr miss rate for overall accesses
system.cpu.dcache.ReadReq_avg_mshr_miss_latency::cpu.data 53463.414634                       # average ReadReq mshr miss latency
system.cpu.dcache.ReadReq_avg_mshr_miss_latency::total 53463.414634                       # average ReadReq mshr miss latency
system.cpu.dcache.WriteReq_avg_mshr_miss_latency::cpu.data        54500                       # average WriteReq mshr miss latency
system.cpu.dcache.WriteReq_avg_mshr_miss_latency::total        54500                       # average WriteReq mshr miss latency
system.cpu.dcache.demand_avg_mshr_miss_latency::cpu.data 53576.086957                       # average overall mshr miss latency
system.cpu.dcache.demand_avg_mshr_miss_latency::total 53576.086957                       # average overall mshr miss latency
system.cpu.dcache.overall_avg_mshr_miss_latency::cpu.data 53576.086957                       # average overall mshr miss latency
system.cpu.dcache.overall_avg_mshr_miss_latency::total 53576.086957                       # average overall mshr miss latency
system.cpu.dcache.no_allocate_misses                0                       # Number of misses that were no-allocate

---------- End Simulation Statistics   ----------
