
---------- Begin Simulation Statistics ----------
sim_seconds                                  0.124957                       # Number of seconds simulated
sim_ticks                                124957029500                       # Number of ticks simulated
final_tick                               16569358942500                       # Number of ticks from beginning of simulation (restored from checkpoints and never reset)
sim_freq                                 1000000000000                       # Frequency of simulated ticks
host_inst_rate                                  68017                       # Simulator instruction rate (inst/s)
host_op_rate                                    89430                       # Simulator op (including micro ops) rate (op/s)
host_tick_rate                               84992577                       # Simulator tick rate (ticks/s)
host_mem_usage                                2862036                       # Number of bytes of host memory used
host_seconds                                  1470.21                       # Real time elapsed on the host
sim_insts                                   100000003                       # Number of instructions simulated
sim_ops                                     131480907                       # Number of ops (including micro ops) simulated
system.physmem.bytes_read::cpu.inst               960                       # Number of bytes read from this memory
system.physmem.bytes_read::cpu.data         172246784                       # Number of bytes read from this memory
system.physmem.bytes_read::total            172247744                       # Number of bytes read from this memory
system.physmem.bytes_inst_read::cpu.inst          960                       # Number of instructions bytes read from this memory
system.physmem.bytes_inst_read::total             960                       # Number of instructions bytes read from this memory
system.physmem.bytes_written::writebacks     82519808                       # Number of bytes written to this memory
system.physmem.bytes_written::total          82519808                       # Number of bytes written to this memory
system.physmem.num_reads::cpu.inst                 15                       # Number of read requests responded to by this memory
system.physmem.num_reads::cpu.data            2691356                       # Number of read requests responded to by this memory
system.physmem.num_reads::total               2691371                       # Number of read requests responded to by this memory
system.physmem.num_writes::writebacks         1289372                       # Number of write requests responded to by this memory
system.physmem.num_writes::total              1289372                       # Number of write requests responded to by this memory
system.physmem.bw_read::cpu.inst                 7683                       # Total read bandwidth from this memory (bytes/s)
system.physmem.bw_read::cpu.data           1378448133                       # Total read bandwidth from this memory (bytes/s)
system.physmem.bw_read::total              1378455815                       # Total read bandwidth from this memory (bytes/s)
system.physmem.bw_inst_read::cpu.inst            7683                       # Instruction read bandwidth from this memory (bytes/s)
system.physmem.bw_inst_read::total               7683                       # Instruction read bandwidth from this memory (bytes/s)
system.physmem.bw_write::writebacks         660385481                       # Write bandwidth from this memory (bytes/s)
system.physmem.bw_write::total              660385481                       # Write bandwidth from this memory (bytes/s)
system.physmem.bw_total::writebacks         660385481                       # Total bandwidth to/from this memory (bytes/s)
system.physmem.bw_total::cpu.inst                7683                       # Total bandwidth to/from this memory (bytes/s)
system.physmem.bw_total::cpu.data          1378448133                       # Total bandwidth to/from this memory (bytes/s)
system.physmem.bw_total::total             2038841296                       # Total bandwidth to/from this memory (bytes/s)
system.l2.replacements                        2691949                       # number of replacements
system.l2.tagsinuse                       4090.524955                       # Cycle average of tags in use
system.l2.total_refs                          1697137                       # Total number of references to valid blocks.
system.l2.sampled_refs                        2696044                       # Sample count of references to valid blocks.
system.l2.avg_refs                           0.629492                       # Average number of references to valid blocks.
system.l2.warmup_cycle                   16444916902000                       # Cycle when the warmup percentage was hit.
system.l2.occ_blocks::writebacks            12.134746                       # Average occupied blocks per requestor
system.l2.occ_blocks::cpu.inst               0.029530                       # Average occupied blocks per requestor
system.l2.occ_blocks::cpu.data            4078.360679                       # Average occupied blocks per requestor
system.l2.occ_percent::writebacks            0.002963                       # Average percentage of cache occupancy
system.l2.occ_percent::cpu.inst              0.000007                       # Average percentage of cache occupancy
system.l2.occ_percent::cpu.data              0.995694                       # Average percentage of cache occupancy
system.l2.occ_percent::total                 0.998663                       # Average percentage of cache occupancy
system.l2.ReadReq_hits::cpu.data               222167                       # number of ReadReq hits
system.l2.ReadReq_hits::total                  222167                       # number of ReadReq hits
system.l2.Writeback_hits::writebacks          1479736                       # number of Writeback hits
system.l2.Writeback_hits::total               1479736                       # number of Writeback hits
system.l2.ReadExReq_hits::cpu.data               4046                       # number of ReadExReq hits
system.l2.ReadExReq_hits::total                  4046                       # number of ReadExReq hits
system.l2.demand_hits::cpu.data                226213                       # number of demand (read+write) hits
system.l2.demand_hits::total                   226213                       # number of demand (read+write) hits
system.l2.overall_hits::cpu.data               226213                       # number of overall hits
system.l2.overall_hits::total                  226213                       # number of overall hits
system.l2.ReadReq_misses::cpu.inst                 15                       # number of ReadReq misses
system.l2.ReadReq_misses::cpu.data            2691265                       # number of ReadReq misses
system.l2.ReadReq_misses::total               2691280                       # number of ReadReq misses
system.l2.ReadExReq_misses::cpu.data               92                       # number of ReadExReq misses
system.l2.ReadExReq_misses::total                  92                       # number of ReadExReq misses
system.l2.demand_misses::cpu.inst                  15                       # number of demand (read+write) misses
system.l2.demand_misses::cpu.data             2691357                       # number of demand (read+write) misses
system.l2.demand_misses::total                2691372                       # number of demand (read+write) misses
system.l2.overall_misses::cpu.inst                 15                       # number of overall misses
system.l2.overall_misses::cpu.data            2691357                       # number of overall misses
system.l2.overall_misses::total               2691372                       # number of overall misses
system.l2.ReadReq_miss_latency::cpu.inst       863000                       # number of ReadReq miss cycles
system.l2.ReadReq_miss_latency::cpu.data 151246723000                       # number of ReadReq miss cycles
system.l2.ReadReq_miss_latency::total    151247586000                       # number of ReadReq miss cycles
system.l2.ReadExReq_miss_latency::cpu.data      5121500                       # number of ReadExReq miss cycles
system.l2.ReadExReq_miss_latency::total       5121500                       # number of ReadExReq miss cycles
system.l2.demand_miss_latency::cpu.inst        863000                       # number of demand (read+write) miss cycles
system.l2.demand_miss_latency::cpu.data  151251844500                       # number of demand (read+write) miss cycles
system.l2.demand_miss_latency::total     151252707500                       # number of demand (read+write) miss cycles
system.l2.overall_miss_latency::cpu.inst       863000                       # number of overall miss cycles
system.l2.overall_miss_latency::cpu.data 151251844500                       # number of overall miss cycles
system.l2.overall_miss_latency::total    151252707500                       # number of overall miss cycles
system.l2.ReadReq_accesses::cpu.inst               15                       # number of ReadReq accesses(hits+misses)
system.l2.ReadReq_accesses::cpu.data          2913432                       # number of ReadReq accesses(hits+misses)
system.l2.ReadReq_accesses::total             2913447                       # number of ReadReq accesses(hits+misses)
system.l2.Writeback_accesses::writebacks      1479736                       # number of Writeback accesses(hits+misses)
system.l2.Writeback_accesses::total           1479736                       # number of Writeback accesses(hits+misses)
system.l2.ReadExReq_accesses::cpu.data           4138                       # number of ReadExReq accesses(hits+misses)
system.l2.ReadExReq_accesses::total              4138                       # number of ReadExReq accesses(hits+misses)
system.l2.demand_accesses::cpu.inst                15                       # number of demand (read+write) accesses
system.l2.demand_accesses::cpu.data           2917570                       # number of demand (read+write) accesses
system.l2.demand_accesses::total              2917585                       # number of demand (read+write) accesses
system.l2.overall_accesses::cpu.inst               15                       # number of overall (read+write) accesses
system.l2.overall_accesses::cpu.data          2917570                       # number of overall (read+write) accesses
system.l2.overall_accesses::total             2917585                       # number of overall (read+write) accesses
system.l2.ReadReq_miss_rate::cpu.inst               1                       # miss rate for ReadReq accesses
system.l2.ReadReq_miss_rate::cpu.data        0.923744                       # miss rate for ReadReq accesses
system.l2.ReadReq_miss_rate::total           0.923744                       # miss rate for ReadReq accesses
system.l2.ReadExReq_miss_rate::cpu.data      0.022233                       # miss rate for ReadExReq accesses
system.l2.ReadExReq_miss_rate::total         0.022233                       # miss rate for ReadExReq accesses
system.l2.demand_miss_rate::cpu.inst                1                       # miss rate for demand accesses
system.l2.demand_miss_rate::cpu.data         0.922465                       # miss rate for demand accesses
system.l2.demand_miss_rate::total            0.922466                       # miss rate for demand accesses
system.l2.overall_miss_rate::cpu.inst               1                       # miss rate for overall accesses
system.l2.overall_miss_rate::cpu.data        0.922465                       # miss rate for overall accesses
system.l2.overall_miss_rate::total           0.922466                       # miss rate for overall accesses
system.l2.ReadReq_avg_miss_latency::cpu.inst 57533.333333                       # average ReadReq miss latency
system.l2.ReadReq_avg_miss_latency::cpu.data 56199.119373                       # average ReadReq miss latency
system.l2.ReadReq_avg_miss_latency::total 56199.126810                       # average ReadReq miss latency
system.l2.ReadExReq_avg_miss_latency::cpu.data 55668.478261                       # average ReadExReq miss latency
system.l2.ReadExReq_avg_miss_latency::total 55668.478261                       # average ReadExReq miss latency
system.l2.demand_avg_miss_latency::cpu.inst 57533.333333                       # average overall miss latency
system.l2.demand_avg_miss_latency::cpu.data 56199.101234                       # average overall miss latency
system.l2.demand_avg_miss_latency::total 56199.108670                       # average overall miss latency
system.l2.overall_avg_miss_latency::cpu.inst 57533.333333                       # average overall miss latency
system.l2.overall_avg_miss_latency::cpu.data 56199.101234                       # average overall miss latency
system.l2.overall_avg_miss_latency::total 56199.108670                       # average overall miss latency
system.l2.blocked_cycles::no_mshrs                  0                       # number of cycles access was blocked
system.l2.blocked_cycles::no_targets                0                       # number of cycles access was blocked
system.l2.blocked::no_mshrs                         0                       # number of cycles access was blocked
system.l2.blocked::no_targets                       0                       # number of cycles access was blocked
system.l2.avg_blocked_cycles::no_mshrs            nan                       # average number of cycles each access was blocked
system.l2.avg_blocked_cycles::no_targets          nan                       # average number of cycles each access was blocked
system.l2.fast_writes                               0                       # number of fast writes performed
system.l2.cache_copies                              0                       # number of cache copies performed
system.l2.writebacks::writebacks              1289372                       # number of writebacks
system.l2.writebacks::total                   1289372                       # number of writebacks
system.l2.ReadReq_mshr_misses::cpu.inst            15                       # number of ReadReq MSHR misses
system.l2.ReadReq_mshr_misses::cpu.data       2691265                       # number of ReadReq MSHR misses
system.l2.ReadReq_mshr_misses::total          2691280                       # number of ReadReq MSHR misses
system.l2.ReadExReq_mshr_misses::cpu.data           92                       # number of ReadExReq MSHR misses
system.l2.ReadExReq_mshr_misses::total             92                       # number of ReadExReq MSHR misses
system.l2.demand_mshr_misses::cpu.inst             15                       # number of demand (read+write) MSHR misses
system.l2.demand_mshr_misses::cpu.data        2691357                       # number of demand (read+write) MSHR misses
system.l2.demand_mshr_misses::total           2691372                       # number of demand (read+write) MSHR misses
system.l2.overall_mshr_misses::cpu.inst            15                       # number of overall MSHR misses
system.l2.overall_mshr_misses::cpu.data       2691357                       # number of overall MSHR misses
system.l2.overall_mshr_misses::total          2691372                       # number of overall MSHR misses
system.l2.ReadReq_mshr_miss_latency::cpu.inst       681500                       # number of ReadReq MSHR miss cycles
system.l2.ReadReq_mshr_miss_latency::cpu.data 118431389500                       # number of ReadReq MSHR miss cycles
system.l2.ReadReq_mshr_miss_latency::total 118432071000                       # number of ReadReq MSHR miss cycles
system.l2.ReadExReq_mshr_miss_latency::cpu.data      4002500                       # number of ReadExReq MSHR miss cycles
system.l2.ReadExReq_mshr_miss_latency::total      4002500                       # number of ReadExReq MSHR miss cycles
system.l2.demand_mshr_miss_latency::cpu.inst       681500                       # number of demand (read+write) MSHR miss cycles
system.l2.demand_mshr_miss_latency::cpu.data 118435392000                       # number of demand (read+write) MSHR miss cycles
system.l2.demand_mshr_miss_latency::total 118436073500                       # number of demand (read+write) MSHR miss cycles
system.l2.overall_mshr_miss_latency::cpu.inst       681500                       # number of overall MSHR miss cycles
system.l2.overall_mshr_miss_latency::cpu.data 118435392000                       # number of overall MSHR miss cycles
system.l2.overall_mshr_miss_latency::total 118436073500                       # number of overall MSHR miss cycles
system.l2.ReadReq_mshr_miss_rate::cpu.inst            1                       # mshr miss rate for ReadReq accesses
system.l2.ReadReq_mshr_miss_rate::cpu.data     0.923744                       # mshr miss rate for ReadReq accesses
system.l2.ReadReq_mshr_miss_rate::total      0.923744                       # mshr miss rate for ReadReq accesses
system.l2.ReadExReq_mshr_miss_rate::cpu.data     0.022233                       # mshr miss rate for ReadExReq accesses
system.l2.ReadExReq_mshr_miss_rate::total     0.022233                       # mshr miss rate for ReadExReq accesses
system.l2.demand_mshr_miss_rate::cpu.inst            1                       # mshr miss rate for demand accesses
system.l2.demand_mshr_miss_rate::cpu.data     0.922465                       # mshr miss rate for demand accesses
system.l2.demand_mshr_miss_rate::total       0.922466                       # mshr miss rate for demand accesses
system.l2.overall_mshr_miss_rate::cpu.inst            1                       # mshr miss rate for overall accesses
system.l2.overall_mshr_miss_rate::cpu.data     0.922465                       # mshr miss rate for overall accesses
system.l2.overall_mshr_miss_rate::total      0.922466                       # mshr miss rate for overall accesses
system.l2.ReadReq_avg_mshr_miss_latency::cpu.inst 45433.333333                       # average ReadReq mshr miss latency
system.l2.ReadReq_avg_mshr_miss_latency::cpu.data 44005.844649                       # average ReadReq mshr miss latency
system.l2.ReadReq_avg_mshr_miss_latency::total 44005.852605                       # average ReadReq mshr miss latency
system.l2.ReadExReq_avg_mshr_miss_latency::cpu.data 43505.434783                       # average ReadExReq mshr miss latency
system.l2.ReadExReq_avg_mshr_miss_latency::total 43505.434783                       # average ReadExReq mshr miss latency
system.l2.demand_avg_mshr_miss_latency::cpu.inst 45433.333333                       # average overall mshr miss latency
system.l2.demand_avg_mshr_miss_latency::cpu.data 44005.827544                       # average overall mshr miss latency
system.l2.demand_avg_mshr_miss_latency::total 44005.835500                       # average overall mshr miss latency
system.l2.overall_avg_mshr_miss_latency::cpu.inst 45433.333333                       # average overall mshr miss latency
system.l2.overall_avg_mshr_miss_latency::cpu.data 44005.827544                       # average overall mshr miss latency
system.l2.overall_avg_mshr_miss_latency::total 44005.835500                       # average overall mshr miss latency
system.l2.no_allocate_misses                        0                       # Number of misses that were no-allocate
system.cpu.branchPred.lookups                10147278                       # Number of BP lookups
system.cpu.branchPred.condPredicted          10147278                       # Number of conditional branches predicted
system.cpu.branchPred.condIncorrect            201426                       # Number of conditional branches incorrect
system.cpu.branchPred.BTBLookups              3538801                       # Number of BTB lookups
system.cpu.branchPred.BTBHits                 3511540                       # Number of BTB hits
system.cpu.branchPred.BTBCorrect                    0                       # Number of correct BTB predictions (this stat may not work properly.
system.cpu.branchPred.BTBHitPct             99.229654                       # BTB Hit Percentage
system.cpu.branchPred.usedRAS                       0                       # Number of times the RAS was used to get a target.
system.cpu.branchPred.RASInCorrect                  0                       # Number of incorrect RAS predictions.
system.cpu.workload.num_syscalls                    0                       # Number of system calls
system.cpu.numCycles                        249914059                       # number of cpu cycles simulated
system.cpu.numWorkItemsStarted                      0                       # number of work items this cpu started
system.cpu.numWorkItemsCompleted                    0                       # number of work items this cpu completed
system.cpu.fetch.icacheStallCycles           11140738                       # Number of cycles fetch is stalled on an Icache miss
system.cpu.fetch.Insts                      112727464                       # Number of instructions fetch has processed
system.cpu.fetch.Branches                    10147278                       # Number of branches that fetch encountered
system.cpu.fetch.predictedBranches            3511540                       # Number of branches that fetch has predicted taken
system.cpu.fetch.Cycles                      43596609                       # Number of cycles fetch has run and was not squashing or blocked
system.cpu.fetch.SquashCycles                 4515050                       # Number of cycles fetch has spent squashing
system.cpu.fetch.BlockedCycles               95610560                       # Number of cycles fetch has spent blocked
system.cpu.fetch.CacheLines                  11064421                       # Number of cache lines fetched
system.cpu.fetch.IcacheSquashes                 70843                       # Number of outstanding Icache misses that were squashed
system.cpu.fetch.rateDist::samples          154661132                       # Number of instructions fetched each cycle (Total)
system.cpu.fetch.rateDist::mean              0.969029                       # Number of instructions fetched each cycle (Total)
system.cpu.fetch.rateDist::stdev             1.664404                       # Number of instructions fetched each cycle (Total)
system.cpu.fetch.rateDist::underflows               0      0.00%      0.00% # Number of instructions fetched each cycle (Total)
system.cpu.fetch.rateDist::0                111080349     71.82%     71.82% # Number of instructions fetched each cycle (Total)
system.cpu.fetch.rateDist::1                  7708196      4.98%     76.81% # Number of instructions fetched each cycle (Total)
system.cpu.fetch.rateDist::2                   650035      0.42%     77.23% # Number of instructions fetched each cycle (Total)
system.cpu.fetch.rateDist::3                    27314      0.02%     77.24% # Number of instructions fetched each cycle (Total)
system.cpu.fetch.rateDist::4                 35195238     22.76%    100.00% # Number of instructions fetched each cycle (Total)
system.cpu.fetch.rateDist::overflows                0      0.00%    100.00% # Number of instructions fetched each cycle (Total)
system.cpu.fetch.rateDist::min_value                0                       # Number of instructions fetched each cycle (Total)
system.cpu.fetch.rateDist::max_value                4                       # Number of instructions fetched each cycle (Total)
system.cpu.fetch.rateDist::total            154661132                       # Number of instructions fetched each cycle (Total)
system.cpu.fetch.branchRate                  0.040603                       # Number of branch fetches per cycle
system.cpu.fetch.rate                        0.451065                       # Number of inst fetches per cycle
system.cpu.decode.IdleCycles                 15841180                       # Number of cycles decode is idle
system.cpu.decode.BlockedCycles              91084804                       # Number of cycles decode is blocked
system.cpu.decode.RunCycles                  38187174                       # Number of cycles decode is running
system.cpu.decode.UnblockCycles               5234734                       # Number of cycles decode is unblocking
system.cpu.decode.SquashCycles                4313225                       # Number of cycles decode is squashing
system.cpu.decode.DecodedInsts              149435720                       # Number of instructions handled by decode
system.cpu.rename.SquashCycles                4313225                       # Number of cycles rename is squashing
system.cpu.rename.IdleCycles                 20018654                       # Number of cycles rename is idle
system.cpu.rename.BlockCycles                78040652                       # Number of cycles rename is blocking
system.cpu.rename.serializeStallCycles              0                       # count of cycles rename stalled for serializing inst
system.cpu.rename.RunCycles                  39104807                       # Number of cycles rename is running
system.cpu.rename.UnblockCycles              13183779                       # Number of cycles rename is unblocking
system.cpu.rename.RenamedInsts              148919931                       # Number of instructions processed by rename
system.cpu.rename.ROBFullEvents                198655                       # Number of times rename has blocked due to ROB full
system.cpu.rename.IQFullEvents                8102530                       # Number of times rename has blocked due to IQ full
system.cpu.rename.LSQFullEvents               3618638                       # Number of times rename has blocked due to LSQ full
system.cpu.rename.RenamedOperands           179386385                       # Number of destination operands rename has renamed
system.cpu.rename.RenameLookups             452908605                       # Number of register rename lookups that rename has made
system.cpu.rename.int_rename_lookups        452908605                       # Number of integer rename lookups
system.cpu.rename.CommittedMaps             158232972                       # Number of HB maps that are committed
system.cpu.rename.UndoneMaps                 21153317                       # Number of HB maps that are undone due to squashing
system.cpu.rename.serializingInsts                  0                       # count of serializing insts renamed
system.cpu.rename.tempSerializingInsts              0                       # count of temporary serializing insts renamed
system.cpu.rename.skidInsts                  27589328                       # count of insts added to the skid buffer
system.cpu.memDep0.insertedLoads             27681335                       # Number of loads inserted to the mem dependence unit.
system.cpu.memDep0.insertedStores            26728727                       # Number of stores inserted to the mem dependence unit.
system.cpu.memDep0.conflictingLoads               120                       # Number of conflicting loads.
system.cpu.memDep0.conflictingStores                8                       # Number of conflicting stores.
system.cpu.iq.iqInstsAdded                  148549595                       # Number of instructions added to the IQ (excludes non-spec)
system.cpu.iq.iqInstsIssued                 137947477                       # Number of instructions issued
system.cpu.iq.iqSquashedInstsIssued            334194                       # Number of squashed instructions issued
system.cpu.iq.iqSquashedInstsExamined        17067803                       # Number of squashed instructions iterated over during squash; mainly for profiling
system.cpu.iq.iqSquashedOperandsExamined     39195288                       # Number of squashed operands that are examined and possibly removed from graph
system.cpu.iq.issued_per_cycle::samples     154661132                       # Number of insts issued each cycle
system.cpu.iq.issued_per_cycle::mean         0.891934                       # Number of insts issued each cycle
system.cpu.iq.issued_per_cycle::stdev        1.302684                       # Number of insts issued each cycle
system.cpu.iq.issued_per_cycle::underflows            0      0.00%      0.00% # Number of insts issued each cycle
system.cpu.iq.issued_per_cycle::0            91683106     59.28%     59.28% # Number of insts issued each cycle
system.cpu.iq.issued_per_cycle::1            23858082     15.43%     74.71% # Number of insts issued each cycle
system.cpu.iq.issued_per_cycle::2            16226682     10.49%     85.20% # Number of insts issued each cycle
system.cpu.iq.issued_per_cycle::3             9937017      6.43%     91.62% # Number of insts issued each cycle
system.cpu.iq.issued_per_cycle::4            12956245      8.38%    100.00% # Number of insts issued each cycle
system.cpu.iq.issued_per_cycle::overflows            0      0.00%    100.00% # Number of insts issued each cycle
system.cpu.iq.issued_per_cycle::min_value            0                       # Number of insts issued each cycle
system.cpu.iq.issued_per_cycle::max_value            4                       # Number of insts issued each cycle
system.cpu.iq.issued_per_cycle::total       154661132                       # Number of insts issued each cycle
system.cpu.iq.fu_full::No_OpClass                   0                       # attempts to use FU when none available
system.cpu.iq.fu_full::IntAlu                       0                       # attempts to use FU when none available
system.cpu.iq.fu_full::IntMult                      0                       # attempts to use FU when none available
system.cpu.iq.fu_full::IntDiv                       0                       # attempts to use FU when none available
system.cpu.iq.fu_full::FloatAdd                     0                       # attempts to use FU when none available
system.cpu.iq.fu_full::FloatCmp                     0                       # attempts to use FU when none available
system.cpu.iq.fu_full::FloatCvt                     0                       # attempts to use FU when none available
system.cpu.iq.fu_full::FloatMult                    0                       # attempts to use FU when none available
system.cpu.iq.fu_full::FloatDiv                     0                       # attempts to use FU when none available
system.cpu.iq.fu_full::FloatSqrt                    0                       # attempts to use FU when none available
system.cpu.iq.fu_full::SimdAdd                      0                       # attempts to use FU when none available
system.cpu.iq.fu_full::SimdAddAcc                   0                       # attempts to use FU when none available
system.cpu.iq.fu_full::SimdAlu                      0                       # attempts to use FU when none available
system.cpu.iq.fu_full::SimdCmp                      0                       # attempts to use FU when none available
system.cpu.iq.fu_full::SimdCvt                      0                       # attempts to use FU when none available
system.cpu.iq.fu_full::SimdMisc                     0                       # attempts to use FU when none available
system.cpu.iq.fu_full::SimdMult                     0                       # attempts to use FU when none available
system.cpu.iq.fu_full::SimdMultAcc                  0                       # attempts to use FU when none available
system.cpu.iq.fu_full::SimdShift                    0                       # attempts to use FU when none available
system.cpu.iq.fu_full::SimdShiftAcc                 0                       # attempts to use FU when none available
system.cpu.iq.fu_full::SimdSqrt                     0                       # attempts to use FU when none available
system.cpu.iq.fu_full::SimdFloatAdd                 0                       # attempts to use FU when none available
system.cpu.iq.fu_full::SimdFloatAlu                 0                       # attempts to use FU when none available
system.cpu.iq.fu_full::SimdFloatCmp                 0                       # attempts to use FU when none available
system.cpu.iq.fu_full::SimdFloatCvt                 0                       # attempts to use FU when none available
system.cpu.iq.fu_full::SimdFloatDiv                 0                       # attempts to use FU when none available
system.cpu.iq.fu_full::SimdFloatMisc                0                       # attempts to use FU when none available
system.cpu.iq.fu_full::SimdFloatMult                0                       # attempts to use FU when none available
system.cpu.iq.fu_full::SimdFloatMultAcc             0                       # attempts to use FU when none available
system.cpu.iq.fu_full::SimdFloatSqrt                0                       # attempts to use FU when none available
system.cpu.iq.fu_full::MemRead                      0                       # attempts to use FU when none available
system.cpu.iq.fu_full::MemWrite                     0                       # attempts to use FU when none available
system.cpu.iq.fu_full::IprAccess                    0                       # attempts to use FU when none available
system.cpu.iq.fu_full::InstPrefetch                 0                       # attempts to use FU when none available
system.cpu.iq.FU_type_0::No_OpClass                48      0.00%      0.00% # Type of FU issued
system.cpu.iq.FU_type_0::IntAlu              87609848     63.51%     63.51% # Type of FU issued
system.cpu.iq.FU_type_0::IntMult                    0      0.00%     63.51% # Type of FU issued
system.cpu.iq.FU_type_0::IntDiv                     0      0.00%     63.51% # Type of FU issued
system.cpu.iq.FU_type_0::FloatAdd                   0      0.00%     63.51% # Type of FU issued
system.cpu.iq.FU_type_0::FloatCmp                   0      0.00%     63.51% # Type of FU issued
system.cpu.iq.FU_type_0::FloatCvt                   0      0.00%     63.51% # Type of FU issued
system.cpu.iq.FU_type_0::FloatMult                  0      0.00%     63.51% # Type of FU issued
system.cpu.iq.FU_type_0::FloatDiv                   0      0.00%     63.51% # Type of FU issued
system.cpu.iq.FU_type_0::FloatSqrt                  0      0.00%     63.51% # Type of FU issued
system.cpu.iq.FU_type_0::SimdAdd                    0      0.00%     63.51% # Type of FU issued
system.cpu.iq.FU_type_0::SimdAddAcc                 0      0.00%     63.51% # Type of FU issued
system.cpu.iq.FU_type_0::SimdAlu                    0      0.00%     63.51% # Type of FU issued
system.cpu.iq.FU_type_0::SimdCmp                    0      0.00%     63.51% # Type of FU issued
system.cpu.iq.FU_type_0::SimdCvt                    0      0.00%     63.51% # Type of FU issued
system.cpu.iq.FU_type_0::SimdMisc                   0      0.00%     63.51% # Type of FU issued
system.cpu.iq.FU_type_0::SimdMult                   0      0.00%     63.51% # Type of FU issued
system.cpu.iq.FU_type_0::SimdMultAcc                0      0.00%     63.51% # Type of FU issued
system.cpu.iq.FU_type_0::SimdShift                  0      0.00%     63.51% # Type of FU issued
system.cpu.iq.FU_type_0::SimdShiftAcc               0      0.00%     63.51% # Type of FU issued
system.cpu.iq.FU_type_0::SimdSqrt                   0      0.00%     63.51% # Type of FU issued
system.cpu.iq.FU_type_0::SimdFloatAdd               0      0.00%     63.51% # Type of FU issued
system.cpu.iq.FU_type_0::SimdFloatAlu               0      0.00%     63.51% # Type of FU issued
system.cpu.iq.FU_type_0::SimdFloatCmp               0      0.00%     63.51% # Type of FU issued
system.cpu.iq.FU_type_0::SimdFloatCvt               0      0.00%     63.51% # Type of FU issued
system.cpu.iq.FU_type_0::SimdFloatDiv               0      0.00%     63.51% # Type of FU issued
system.cpu.iq.FU_type_0::SimdFloatMisc              0      0.00%     63.51% # Type of FU issued
system.cpu.iq.FU_type_0::SimdFloatMult              0      0.00%     63.51% # Type of FU issued
system.cpu.iq.FU_type_0::SimdFloatMultAcc            0      0.00%     63.51% # Type of FU issued
system.cpu.iq.FU_type_0::SimdFloatSqrt              0      0.00%     63.51% # Type of FU issued
system.cpu.iq.FU_type_0::MemRead             25360856     18.38%     81.89% # Type of FU issued
system.cpu.iq.FU_type_0::MemWrite            24976725     18.11%    100.00% # Type of FU issued
system.cpu.iq.FU_type_0::IprAccess                  0      0.00%    100.00% # Type of FU issued
system.cpu.iq.FU_type_0::InstPrefetch               0      0.00%    100.00% # Type of FU issued
system.cpu.iq.FU_type_0::total              137947477                       # Type of FU issued
system.cpu.iq.rate                           0.551980                       # Inst issue rate
system.cpu.iq.fu_busy_cnt                           0                       # FU busy when requested
system.cpu.iq.fu_busy_rate                          0                       # FU busy rate (busy events/executed inst)
system.cpu.iq.int_inst_queue_reads          430890280                       # Number of integer instruction queue reads
system.cpu.iq.int_inst_queue_writes         165617429                       # Number of integer instruction queue writes
system.cpu.iq.int_inst_queue_wakeup_accesses    137454081                       # Number of integer instruction queue wakeup accesses
system.cpu.iq.fp_inst_queue_reads                   0                       # Number of floating instruction queue reads
system.cpu.iq.fp_inst_queue_writes                  0                       # Number of floating instruction queue writes
system.cpu.iq.fp_inst_queue_wakeup_accesses            0                       # Number of floating instruction queue wakeup accesses
system.cpu.iq.int_alu_accesses              137947429                       # Number of integer alu accesses
system.cpu.iq.fp_alu_accesses                       0                       # Number of floating point alu accesses
system.cpu.iew.lsq.thread0.forwLoads              353                       # Number of loads that had data forwarded from stores
system.cpu.iew.lsq.thread0.invAddrLoads             0                       # Number of loads ignored due to an invalid address
system.cpu.iew.lsq.thread0.squashedLoads      3583537                       # Number of loads squashed
system.cpu.iew.lsq.thread0.ignoredResponses            0                       # Number of memory responses ignored because the instruction is squashed
system.cpu.iew.lsq.thread0.memOrderViolation           33                       # Number of memory ordering violations
system.cpu.iew.lsq.thread0.squashedStores      2373420                       # Number of stores squashed
system.cpu.iew.lsq.thread0.invAddrSwpfs             0                       # Number of software prefetches ignored due to an invalid address
system.cpu.iew.lsq.thread0.blockedLoads             0                       # Number of blocked loads due to partial load-store forwarding
system.cpu.iew.lsq.thread0.rescheduledLoads            0                       # Number of loads that were rescheduled
system.cpu.iew.lsq.thread0.cacheBlocked           505                       # Number of times an access to memory failed due to the cache being blocked
system.cpu.iew.iewIdleCycles                        0                       # Number of cycles IEW is idle
system.cpu.iew.iewSquashCycles                4313225                       # Number of cycles IEW is squashing
system.cpu.iew.iewBlockCycles                65624719                       # Number of cycles IEW is blocking
system.cpu.iew.iewUnblockCycles               1720951                       # Number of cycles IEW is unblocking
system.cpu.iew.iewDispatchedInsts           148549595                       # Number of instructions dispatched to IQ
system.cpu.iew.iewDispSquashedInsts                 5                       # Number of squashed instructions skipped by dispatch
system.cpu.iew.iewDispLoadInsts              27681335                       # Number of dispatched load instructions
system.cpu.iew.iewDispStoreInsts             26728727                       # Number of dispatched store instructions
system.cpu.iew.iewDispNonSpecInsts                  0                       # Number of dispatched non-speculative instructions
system.cpu.iew.iewIQFullEvents                1177342                       # Number of times the IQ has become full, causing a stall
system.cpu.iew.iewLSQFullEvents                  1664                       # Number of times the LSQ has become full, causing a stall
system.cpu.iew.memOrderViolationEvents             33                       # Number of memory order violations
system.cpu.iew.predictedTakenIncorrect          50539                       # Number of branches that were predicted taken incorrectly
system.cpu.iew.predictedNotTakenIncorrect       169619                       # Number of branches that were predicted not taken incorrectly
system.cpu.iew.branchMispredicts               220158                       # Number of branch mispredicts detected at execute
system.cpu.iew.iewExecutedInsts             137786878                       # Number of executed instructions
system.cpu.iew.iewExecLoadInsts              25297432                       # Number of load instructions executed
system.cpu.iew.iewExecSquashedInsts            160599                       # Number of squashed instructions skipped in execute
system.cpu.iew.exec_swp                             0                       # number of swp insts executed
system.cpu.iew.exec_nop                             0                       # number of nop insts executed
system.cpu.iew.exec_refs                     50226664                       # number of memory reference insts executed
system.cpu.iew.exec_branches                  8833681                       # Number of branches executed
system.cpu.iew.exec_stores                   24929232                       # Number of stores executed
system.cpu.iew.exec_rate                     0.551337                       # Inst execution rate
system.cpu.iew.wb_sent                      137551816                       # cumulative count of insts sent to commit
system.cpu.iew.wb_count                     137454081                       # cumulative count of insts written-back
system.cpu.iew.wb_producers                 100839183                       # num instructions producing a value
system.cpu.iew.wb_consumers                 218268495                       # num instructions consuming a value
system.cpu.iew.wb_penalized                         0                       # number of instrctions required to write to 'other' IQ
system.cpu.iew.wb_rate                       0.550005                       # insts written-back per cycle
system.cpu.iew.wb_fanout                     0.461996                       # average fanout of values written-back
system.cpu.iew.wb_penalized_rate                    0                       # fraction of instructions written-back that wrote to 'other' IQ
system.cpu.commit.commitSquashedInsts        17068667                       # The number of squashed insts skipped by commit
system.cpu.commit.branchMispredicts            201426                       # The number of times a branch was mispredicted
system.cpu.commit.committed_per_cycle::samples    150347907                       # Number of insts commited each cycle
system.cpu.commit.committed_per_cycle::mean     0.874511                       # Number of insts commited each cycle
system.cpu.commit.committed_per_cycle::stdev     1.358815                       # Number of insts commited each cycle
system.cpu.commit.committed_per_cycle::underflows            0      0.00%      0.00% # Number of insts commited each cycle
system.cpu.commit.committed_per_cycle::0     92860263     61.76%     61.76% # Number of insts commited each cycle
system.cpu.commit.committed_per_cycle::1     24679301     16.41%     78.18% # Number of insts commited each cycle
system.cpu.commit.committed_per_cycle::2      6995005      4.65%     82.83% # Number of insts commited each cycle
system.cpu.commit.committed_per_cycle::3     10441756      6.95%     89.78% # Number of insts commited each cycle
system.cpu.commit.committed_per_cycle::4     15371582     10.22%    100.00% # Number of insts commited each cycle
system.cpu.commit.committed_per_cycle::overflows            0      0.00%    100.00% # Number of insts commited each cycle
system.cpu.commit.committed_per_cycle::min_value            0                       # Number of insts commited each cycle
system.cpu.commit.committed_per_cycle::max_value            4                       # Number of insts commited each cycle
system.cpu.commit.committed_per_cycle::total    150347907                       # Number of insts commited each cycle
system.cpu.commit.committedInsts            100000003                       # Number of instructions committed
system.cpu.commit.committedOps              131480907                       # Number of ops (including micro ops) committed
system.cpu.commit.swp_count                         0                       # Number of s/w prefetches committed
system.cpu.commit.refs                       48453084                       # Number of memory references committed
system.cpu.commit.loads                      24097787                       # Number of loads committed
system.cpu.commit.membars                           0                       # Number of memory barriers committed
system.cpu.commit.branches                    8581311                       # Number of branches committed
system.cpu.commit.fp_insts                          0                       # Number of committed floating point instructions.
system.cpu.commit.int_insts                 131480906                       # Number of committed integer instructions.
system.cpu.commit.function_calls                    0                       # Number of function calls committed.
system.cpu.commit.bw_lim_events              15371582                       # number cycles where commit BW limit reached
system.cpu.commit.bw_limited                        0                       # number of insts not committed due to BW limits
system.cpu.rob.rob_reads                    283525899                       # The number of ROB reads
system.cpu.rob.rob_writes                   301412453                       # The number of ROB writes
system.cpu.timesIdled                         1899951                       # Number of times that the entire CPU went into an idle state and unscheduled itself
system.cpu.idleCycles                        95252927                       # Total number of cycles that the CPU has spent unscheduled due to idling
system.cpu.committedInsts                   100000003                       # Number of Instructions Simulated
system.cpu.committedOps                     131480907                       # Number of Ops (including micro ops) Simulated
system.cpu.committedInsts_total             100000003                       # Number of Instructions Simulated
system.cpu.cpi                               2.499141                       # CPI: Cycles Per Instruction
system.cpu.cpi_total                         2.499141                       # CPI: Total CPI of All Threads
system.cpu.ipc                               0.400138                       # IPC: Instructions Per Cycle
system.cpu.ipc_total                         0.400138                       # IPC: Total IPC of All Threads
system.cpu.int_regfile_reads                344559861                       # number of integer regfile reads
system.cpu.int_regfile_writes               164621016                       # number of integer regfile writes
system.cpu.misc_regfile_reads                68943385                       # number of misc regfile reads
system.cpu.itb_walker_cache.replacements            0                       # number of replacements
system.cpu.itb_walker_cache.tagsinuse               0                       # Cycle average of tags in use
system.cpu.itb_walker_cache.total_refs              0                       # Total number of references to valid blocks.
system.cpu.itb_walker_cache.sampled_refs            0                       # Sample count of references to valid blocks.
system.cpu.itb_walker_cache.avg_refs              nan                       # Average number of references to valid blocks.
system.cpu.itb_walker_cache.warmup_cycle            0                       # Cycle when the warmup percentage was hit.
system.cpu.itb_walker_cache.blocked_cycles::no_mshrs            0                       # number of cycles access was blocked
system.cpu.itb_walker_cache.blocked_cycles::no_targets            0                       # number of cycles access was blocked
system.cpu.itb_walker_cache.blocked::no_mshrs            0                       # number of cycles access was blocked
system.cpu.itb_walker_cache.blocked::no_targets            0                       # number of cycles access was blocked
system.cpu.itb_walker_cache.avg_blocked_cycles::no_mshrs          nan                       # average number of cycles each access was blocked
system.cpu.itb_walker_cache.avg_blocked_cycles::no_targets          nan                       # average number of cycles each access was blocked
system.cpu.itb_walker_cache.fast_writes             0                       # number of fast writes performed
system.cpu.itb_walker_cache.cache_copies            0                       # number of cache copies performed
system.cpu.itb_walker_cache.no_allocate_misses            0                       # Number of misses that were no-allocate
system.cpu.dtb_walker_cache.replacements            0                       # number of replacements
system.cpu.dtb_walker_cache.tagsinuse               0                       # Cycle average of tags in use
system.cpu.dtb_walker_cache.total_refs              0                       # Total number of references to valid blocks.
system.cpu.dtb_walker_cache.sampled_refs            0                       # Sample count of references to valid blocks.
system.cpu.dtb_walker_cache.avg_refs              nan                       # Average number of references to valid blocks.
system.cpu.dtb_walker_cache.warmup_cycle            0                       # Cycle when the warmup percentage was hit.
system.cpu.dtb_walker_cache.blocked_cycles::no_mshrs            0                       # number of cycles access was blocked
system.cpu.dtb_walker_cache.blocked_cycles::no_targets            0                       # number of cycles access was blocked
system.cpu.dtb_walker_cache.blocked::no_mshrs            0                       # number of cycles access was blocked
system.cpu.dtb_walker_cache.blocked::no_targets            0                       # number of cycles access was blocked
system.cpu.dtb_walker_cache.avg_blocked_cycles::no_mshrs          nan                       # average number of cycles each access was blocked
system.cpu.dtb_walker_cache.avg_blocked_cycles::no_targets          nan                       # average number of cycles each access was blocked
system.cpu.dtb_walker_cache.fast_writes             0                       # number of fast writes performed
system.cpu.dtb_walker_cache.cache_copies            0                       # number of cache copies performed
system.cpu.dtb_walker_cache.no_allocate_misses            0                       # Number of misses that were no-allocate
system.cpu.icache.replacements                      0                       # number of replacements
system.cpu.icache.tagsinuse                 14.999921                       # Cycle average of tags in use
system.cpu.icache.total_refs                 11064401                       # Total number of references to valid blocks.
system.cpu.icache.sampled_refs                     15                       # Sample count of references to valid blocks.
system.cpu.icache.avg_refs               737626.733333                       # Average number of references to valid blocks.
system.cpu.icache.warmup_cycle                      0                       # Cycle when the warmup percentage was hit.
system.cpu.icache.occ_blocks::cpu.inst      14.999921                       # Average occupied blocks per requestor
system.cpu.icache.occ_percent::cpu.inst      0.029297                       # Average percentage of cache occupancy
system.cpu.icache.occ_percent::total         0.029297                       # Average percentage of cache occupancy
system.cpu.icache.ReadReq_hits::cpu.inst     11064401                       # number of ReadReq hits
system.cpu.icache.ReadReq_hits::total        11064401                       # number of ReadReq hits
system.cpu.icache.demand_hits::cpu.inst      11064401                       # number of demand (read+write) hits
system.cpu.icache.demand_hits::total         11064401                       # number of demand (read+write) hits
system.cpu.icache.overall_hits::cpu.inst     11064401                       # number of overall hits
system.cpu.icache.overall_hits::total        11064401                       # number of overall hits
system.cpu.icache.ReadReq_misses::cpu.inst           20                       # number of ReadReq misses
system.cpu.icache.ReadReq_misses::total            20                       # number of ReadReq misses
system.cpu.icache.demand_misses::cpu.inst           20                       # number of demand (read+write) misses
system.cpu.icache.demand_misses::total             20                       # number of demand (read+write) misses
system.cpu.icache.overall_misses::cpu.inst           20                       # number of overall misses
system.cpu.icache.overall_misses::total            20                       # number of overall misses
system.cpu.icache.ReadReq_miss_latency::cpu.inst      1108500                       # number of ReadReq miss cycles
system.cpu.icache.ReadReq_miss_latency::total      1108500                       # number of ReadReq miss cycles
system.cpu.icache.demand_miss_latency::cpu.inst      1108500                       # number of demand (read+write) miss cycles
system.cpu.icache.demand_miss_latency::total      1108500                       # number of demand (read+write) miss cycles
system.cpu.icache.overall_miss_latency::cpu.inst      1108500                       # number of overall miss cycles
system.cpu.icache.overall_miss_latency::total      1108500                       # number of overall miss cycles
system.cpu.icache.ReadReq_accesses::cpu.inst     11064421                       # number of ReadReq accesses(hits+misses)
system.cpu.icache.ReadReq_accesses::total     11064421                       # number of ReadReq accesses(hits+misses)
system.cpu.icache.demand_accesses::cpu.inst     11064421                       # number of demand (read+write) accesses
system.cpu.icache.demand_accesses::total     11064421                       # number of demand (read+write) accesses
system.cpu.icache.overall_accesses::cpu.inst     11064421                       # number of overall (read+write) accesses
system.cpu.icache.overall_accesses::total     11064421                       # number of overall (read+write) accesses
system.cpu.icache.ReadReq_miss_rate::cpu.inst     0.000002                       # miss rate for ReadReq accesses
system.cpu.icache.ReadReq_miss_rate::total     0.000002                       # miss rate for ReadReq accesses
system.cpu.icache.demand_miss_rate::cpu.inst     0.000002                       # miss rate for demand accesses
system.cpu.icache.demand_miss_rate::total     0.000002                       # miss rate for demand accesses
system.cpu.icache.overall_miss_rate::cpu.inst     0.000002                       # miss rate for overall accesses
system.cpu.icache.overall_miss_rate::total     0.000002                       # miss rate for overall accesses
system.cpu.icache.ReadReq_avg_miss_latency::cpu.inst        55425                       # average ReadReq miss latency
system.cpu.icache.ReadReq_avg_miss_latency::total        55425                       # average ReadReq miss latency
system.cpu.icache.demand_avg_miss_latency::cpu.inst        55425                       # average overall miss latency
system.cpu.icache.demand_avg_miss_latency::total        55425                       # average overall miss latency
system.cpu.icache.overall_avg_miss_latency::cpu.inst        55425                       # average overall miss latency
system.cpu.icache.overall_avg_miss_latency::total        55425                       # average overall miss latency
system.cpu.icache.blocked_cycles::no_mshrs            0                       # number of cycles access was blocked
system.cpu.icache.blocked_cycles::no_targets            0                       # number of cycles access was blocked
system.cpu.icache.blocked::no_mshrs                 0                       # number of cycles access was blocked
system.cpu.icache.blocked::no_targets               0                       # number of cycles access was blocked
system.cpu.icache.avg_blocked_cycles::no_mshrs          nan                       # average number of cycles each access was blocked
system.cpu.icache.avg_blocked_cycles::no_targets          nan                       # average number of cycles each access was blocked
system.cpu.icache.fast_writes                       0                       # number of fast writes performed
system.cpu.icache.cache_copies                      0                       # number of cache copies performed
system.cpu.icache.ReadReq_mshr_hits::cpu.inst            5                       # number of ReadReq MSHR hits
system.cpu.icache.ReadReq_mshr_hits::total            5                       # number of ReadReq MSHR hits
system.cpu.icache.demand_mshr_hits::cpu.inst            5                       # number of demand (read+write) MSHR hits
system.cpu.icache.demand_mshr_hits::total            5                       # number of demand (read+write) MSHR hits
system.cpu.icache.overall_mshr_hits::cpu.inst            5                       # number of overall MSHR hits
system.cpu.icache.overall_mshr_hits::total            5                       # number of overall MSHR hits
system.cpu.icache.ReadReq_mshr_misses::cpu.inst           15                       # number of ReadReq MSHR misses
system.cpu.icache.ReadReq_mshr_misses::total           15                       # number of ReadReq MSHR misses
system.cpu.icache.demand_mshr_misses::cpu.inst           15                       # number of demand (read+write) MSHR misses
system.cpu.icache.demand_mshr_misses::total           15                       # number of demand (read+write) MSHR misses
system.cpu.icache.overall_mshr_misses::cpu.inst           15                       # number of overall MSHR misses
system.cpu.icache.overall_mshr_misses::total           15                       # number of overall MSHR misses
system.cpu.icache.ReadReq_mshr_miss_latency::cpu.inst       878500                       # number of ReadReq MSHR miss cycles
system.cpu.icache.ReadReq_mshr_miss_latency::total       878500                       # number of ReadReq MSHR miss cycles
system.cpu.icache.demand_mshr_miss_latency::cpu.inst       878500                       # number of demand (read+write) MSHR miss cycles
system.cpu.icache.demand_mshr_miss_latency::total       878500                       # number of demand (read+write) MSHR miss cycles
system.cpu.icache.overall_mshr_miss_latency::cpu.inst       878500                       # number of overall MSHR miss cycles
system.cpu.icache.overall_mshr_miss_latency::total       878500                       # number of overall MSHR miss cycles
system.cpu.icache.ReadReq_mshr_miss_rate::cpu.inst     0.000001                       # mshr miss rate for ReadReq accesses
system.cpu.icache.ReadReq_mshr_miss_rate::total     0.000001                       # mshr miss rate for ReadReq accesses
system.cpu.icache.demand_mshr_miss_rate::cpu.inst     0.000001                       # mshr miss rate for demand accesses
system.cpu.icache.demand_mshr_miss_rate::total     0.000001                       # mshr miss rate for demand accesses
system.cpu.icache.overall_mshr_miss_rate::cpu.inst     0.000001                       # mshr miss rate for overall accesses
system.cpu.icache.overall_mshr_miss_rate::total     0.000001                       # mshr miss rate for overall accesses
system.cpu.icache.ReadReq_avg_mshr_miss_latency::cpu.inst 58566.666667                       # average ReadReq mshr miss latency
system.cpu.icache.ReadReq_avg_mshr_miss_latency::total 58566.666667                       # average ReadReq mshr miss latency
system.cpu.icache.demand_avg_mshr_miss_latency::cpu.inst 58566.666667                       # average overall mshr miss latency
system.cpu.icache.demand_avg_mshr_miss_latency::total 58566.666667                       # average overall mshr miss latency
system.cpu.icache.overall_avg_mshr_miss_latency::cpu.inst 58566.666667                       # average overall mshr miss latency
system.cpu.icache.overall_avg_mshr_miss_latency::total 58566.666667                       # average overall mshr miss latency
system.cpu.icache.no_allocate_misses                0                       # Number of misses that were no-allocate
system.cpu.dcache.replacements                2917057                       # number of replacements
system.cpu.dcache.tagsinuse                511.912226                       # Cycle average of tags in use
system.cpu.dcache.total_refs                 45520699                       # Total number of references to valid blocks.
system.cpu.dcache.sampled_refs                2917569                       # Sample count of references to valid blocks.
system.cpu.dcache.avg_refs                  15.602270                       # Average number of references to valid blocks.
system.cpu.dcache.warmup_cycle           16444508074000                       # Cycle when the warmup percentage was hit.
system.cpu.dcache.occ_blocks::cpu.data     511.912226                       # Average occupied blocks per requestor
system.cpu.dcache.occ_percent::cpu.data      0.999829                       # Average percentage of cache occupancy
system.cpu.dcache.occ_percent::total         0.999829                       # Average percentage of cache occupancy
system.cpu.dcache.ReadReq_hits::cpu.data     21169548                       # number of ReadReq hits
system.cpu.dcache.ReadReq_hits::total        21169548                       # number of ReadReq hits
system.cpu.dcache.WriteReq_hits::cpu.data     24351151                       # number of WriteReq hits
system.cpu.dcache.WriteReq_hits::total       24351151                       # number of WriteReq hits
system.cpu.dcache.demand_hits::cpu.data      45520699                       # number of demand (read+write) hits
system.cpu.dcache.demand_hits::total         45520699                       # number of demand (read+write) hits
system.cpu.dcache.overall_hits::cpu.data     45520699                       # number of overall hits
system.cpu.dcache.overall_hits::total        45520699                       # number of overall hits
system.cpu.dcache.ReadReq_misses::cpu.data      4066837                       # number of ReadReq misses
system.cpu.dcache.ReadReq_misses::total       4066837                       # number of ReadReq misses
system.cpu.dcache.WriteReq_misses::cpu.data         4138                       # number of WriteReq misses
system.cpu.dcache.WriteReq_misses::total         4138                       # number of WriteReq misses
system.cpu.dcache.demand_misses::cpu.data      4070975                       # number of demand (read+write) misses
system.cpu.dcache.demand_misses::total        4070975                       # number of demand (read+write) misses
system.cpu.dcache.overall_misses::cpu.data      4070975                       # number of overall misses
system.cpu.dcache.overall_misses::total       4070975                       # number of overall misses
system.cpu.dcache.ReadReq_miss_latency::cpu.data 217667026000                       # number of ReadReq miss cycles
system.cpu.dcache.ReadReq_miss_latency::total 217667026000                       # number of ReadReq miss cycles
system.cpu.dcache.WriteReq_miss_latency::cpu.data     58528500                       # number of WriteReq miss cycles
system.cpu.dcache.WriteReq_miss_latency::total     58528500                       # number of WriteReq miss cycles
system.cpu.dcache.demand_miss_latency::cpu.data 217725554500                       # number of demand (read+write) miss cycles
system.cpu.dcache.demand_miss_latency::total 217725554500                       # number of demand (read+write) miss cycles
system.cpu.dcache.overall_miss_latency::cpu.data 217725554500                       # number of overall miss cycles
system.cpu.dcache.overall_miss_latency::total 217725554500                       # number of overall miss cycles
system.cpu.dcache.ReadReq_accesses::cpu.data     25236385                       # number of ReadReq accesses(hits+misses)
system.cpu.dcache.ReadReq_accesses::total     25236385                       # number of ReadReq accesses(hits+misses)
system.cpu.dcache.WriteReq_accesses::cpu.data     24355289                       # number of WriteReq accesses(hits+misses)
system.cpu.dcache.WriteReq_accesses::total     24355289                       # number of WriteReq accesses(hits+misses)
system.cpu.dcache.demand_accesses::cpu.data     49591674                       # number of demand (read+write) accesses
system.cpu.dcache.demand_accesses::total     49591674                       # number of demand (read+write) accesses
system.cpu.dcache.overall_accesses::cpu.data     49591674                       # number of overall (read+write) accesses
system.cpu.dcache.overall_accesses::total     49591674                       # number of overall (read+write) accesses
system.cpu.dcache.ReadReq_miss_rate::cpu.data     0.161150                       # miss rate for ReadReq accesses
system.cpu.dcache.ReadReq_miss_rate::total     0.161150                       # miss rate for ReadReq accesses
system.cpu.dcache.WriteReq_miss_rate::cpu.data     0.000170                       # miss rate for WriteReq accesses
system.cpu.dcache.WriteReq_miss_rate::total     0.000170                       # miss rate for WriteReq accesses
system.cpu.dcache.demand_miss_rate::cpu.data     0.082090                       # miss rate for demand accesses
system.cpu.dcache.demand_miss_rate::total     0.082090                       # miss rate for demand accesses
system.cpu.dcache.overall_miss_rate::cpu.data     0.082090                       # miss rate for overall accesses
system.cpu.dcache.overall_miss_rate::total     0.082090                       # miss rate for overall accesses
system.cpu.dcache.ReadReq_avg_miss_latency::cpu.data 53522.436724                       # average ReadReq miss latency
system.cpu.dcache.ReadReq_avg_miss_latency::total 53522.436724                       # average ReadReq miss latency
system.cpu.dcache.WriteReq_avg_miss_latency::cpu.data 14144.151764                       # average WriteReq miss latency
system.cpu.dcache.WriteReq_avg_miss_latency::total 14144.151764                       # average WriteReq miss latency
system.cpu.dcache.demand_avg_miss_latency::cpu.data 53482.410111                       # average overall miss latency
system.cpu.dcache.demand_avg_miss_latency::total 53482.410111                       # average overall miss latency
system.cpu.dcache.overall_avg_miss_latency::cpu.data 53482.410111                       # average overall miss latency
system.cpu.dcache.overall_avg_miss_latency::total 53482.410111                       # average overall miss latency
system.cpu.dcache.blocked_cycles::no_mshrs       745251                       # number of cycles access was blocked
system.cpu.dcache.blocked_cycles::no_targets            0                       # number of cycles access was blocked
system.cpu.dcache.blocked::no_mshrs             81251                       # number of cycles access was blocked
system.cpu.dcache.blocked::no_targets               0                       # number of cycles access was blocked
system.cpu.dcache.avg_blocked_cycles::no_mshrs     9.172207                       # average number of cycles each access was blocked
system.cpu.dcache.avg_blocked_cycles::no_targets          nan                       # average number of cycles each access was blocked
system.cpu.dcache.fast_writes                       0                       # number of fast writes performed
system.cpu.dcache.cache_copies                      0                       # number of cache copies performed
system.cpu.dcache.writebacks::writebacks      1479736                       # number of writebacks
system.cpu.dcache.writebacks::total           1479736                       # number of writebacks
system.cpu.dcache.ReadReq_mshr_hits::cpu.data      1153403                       # number of ReadReq MSHR hits
system.cpu.dcache.ReadReq_mshr_hits::total      1153403                       # number of ReadReq MSHR hits
system.cpu.dcache.WriteReq_mshr_hits::cpu.data            1                       # number of WriteReq MSHR hits
system.cpu.dcache.WriteReq_mshr_hits::total            1                       # number of WriteReq MSHR hits
system.cpu.dcache.demand_mshr_hits::cpu.data      1153404                       # number of demand (read+write) MSHR hits
system.cpu.dcache.demand_mshr_hits::total      1153404                       # number of demand (read+write) MSHR hits
system.cpu.dcache.overall_mshr_hits::cpu.data      1153404                       # number of overall MSHR hits
system.cpu.dcache.overall_mshr_hits::total      1153404                       # number of overall MSHR hits
system.cpu.dcache.ReadReq_mshr_misses::cpu.data      2913434                       # number of ReadReq MSHR misses
system.cpu.dcache.ReadReq_mshr_misses::total      2913434                       # number of ReadReq MSHR misses
system.cpu.dcache.WriteReq_mshr_misses::cpu.data         4137                       # number of WriteReq MSHR misses
system.cpu.dcache.WriteReq_mshr_misses::total         4137                       # number of WriteReq MSHR misses
system.cpu.dcache.demand_mshr_misses::cpu.data      2917571                       # number of demand (read+write) MSHR misses
system.cpu.dcache.demand_mshr_misses::total      2917571                       # number of demand (read+write) MSHR misses
system.cpu.dcache.overall_mshr_misses::cpu.data      2917571                       # number of overall MSHR misses
system.cpu.dcache.overall_mshr_misses::total      2917571                       # number of overall MSHR misses
system.cpu.dcache.ReadReq_mshr_miss_latency::cpu.data 156597148000                       # number of ReadReq MSHR miss cycles
system.cpu.dcache.ReadReq_mshr_miss_latency::total 156597148000                       # number of ReadReq MSHR miss cycles
system.cpu.dcache.WriteReq_mshr_miss_latency::cpu.data     50241000                       # number of WriteReq MSHR miss cycles
system.cpu.dcache.WriteReq_mshr_miss_latency::total     50241000                       # number of WriteReq MSHR miss cycles
system.cpu.dcache.demand_mshr_miss_latency::cpu.data 156647389000                       # number of demand (read+write) MSHR miss cycles
system.cpu.dcache.demand_mshr_miss_latency::total 156647389000                       # number of demand (read+write) MSHR miss cycles
system.cpu.dcache.overall_mshr_miss_latency::cpu.data 156647389000                       # number of overall MSHR miss cycles
system.cpu.dcache.overall_mshr_miss_latency::total 156647389000                       # number of overall MSHR miss cycles
system.cpu.dcache.ReadReq_mshr_miss_rate::cpu.data     0.115446                       # mshr miss rate for ReadReq accesses
system.cpu.dcache.ReadReq_mshr_miss_rate::total     0.115446                       # mshr miss rate for ReadReq accesses
system.cpu.dcache.WriteReq_mshr_miss_rate::cpu.data     0.000170                       # mshr miss rate for WriteReq accesses
system.cpu.dcache.WriteReq_mshr_miss_rate::total     0.000170                       # mshr miss rate for WriteReq accesses
system.cpu.dcache.demand_mshr_miss_rate::cpu.data     0.058832                       # mshr miss rate for demand accesses
system.cpu.dcache.demand_mshr_miss_rate::total     0.058832                       # mshr miss rate for demand accesses
system.cpu.dcache.overall_mshr_miss_rate::cpu.data     0.058832                       # mshr miss rate for overall accesses
system.cpu.dcache.overall_mshr_miss_rate::total     0.058832                       # mshr miss rate for overall accesses
system.cpu.dcache.ReadReq_avg_mshr_miss_latency::cpu.data 53750.024198                       # average ReadReq mshr miss latency
system.cpu.dcache.ReadReq_avg_mshr_miss_latency::total 53750.024198                       # average ReadReq mshr miss latency
system.cpu.dcache.WriteReq_avg_mshr_miss_latency::cpu.data 12144.307469                       # average WriteReq mshr miss latency
system.cpu.dcache.WriteReq_avg_mshr_miss_latency::total 12144.307469                       # average WriteReq mshr miss latency
system.cpu.dcache.demand_avg_mshr_miss_latency::cpu.data 53691.028942                       # average overall mshr miss latency
system.cpu.dcache.demand_avg_mshr_miss_latency::total 53691.028942                       # average overall mshr miss latency
system.cpu.dcache.overall_avg_mshr_miss_latency::cpu.data 53691.028942                       # average overall mshr miss latency
system.cpu.dcache.overall_avg_mshr_miss_latency::total 53691.028942                       # average overall mshr miss latency
system.cpu.dcache.no_allocate_misses                0                       # Number of misses that were no-allocate

---------- End Simulation Statistics   ----------
