
---------- Begin Simulation Statistics ----------
sim_seconds                                  0.123421                       # Number of seconds simulated
sim_ticks                                123421162500                       # Number of ticks simulated
final_tick                               16567823075500                       # Number of ticks from beginning of simulation (restored from checkpoints and never reset)
sim_freq                                 1000000000000                       # Frequency of simulated ticks
host_inst_rate                                  77498                       # Simulator instruction rate (inst/s)
host_op_rate                                   101896                       # Simulator op (including micro ops) rate (op/s)
host_tick_rate                               95649452                       # Simulator tick rate (ticks/s)
host_mem_usage                                2862120                       # Number of bytes of host memory used
host_seconds                                  1290.35                       # Real time elapsed on the host
sim_insts                                   100000003                       # Number of instructions simulated
sim_ops                                     131480907                       # Number of ops (including micro ops) simulated
system.physmem.bytes_read::cpu.inst               960                       # Number of bytes read from this memory
system.physmem.bytes_read::cpu.data         172123712                       # Number of bytes read from this memory
system.physmem.bytes_read::total            172124672                       # Number of bytes read from this memory
system.physmem.bytes_inst_read::cpu.inst          960                       # Number of instructions bytes read from this memory
system.physmem.bytes_inst_read::total             960                       # Number of instructions bytes read from this memory
system.physmem.bytes_written::writebacks     82446272                       # Number of bytes written to this memory
system.physmem.bytes_written::total          82446272                       # Number of bytes written to this memory
system.physmem.num_reads::cpu.inst                 15                       # Number of read requests responded to by this memory
system.physmem.num_reads::cpu.data            2689433                       # Number of read requests responded to by this memory
system.physmem.num_reads::total               2689448                       # Number of read requests responded to by this memory
system.physmem.num_writes::writebacks         1288223                       # Number of write requests responded to by this memory
system.physmem.num_writes::total              1288223                       # Number of write requests responded to by this memory
system.physmem.bw_read::cpu.inst                 7778                       # Total read bandwidth from this memory (bytes/s)
system.physmem.bw_read::cpu.data           1394604527                       # Total read bandwidth from this memory (bytes/s)
system.physmem.bw_read::total              1394612306                       # Total read bandwidth from this memory (bytes/s)
system.physmem.bw_inst_read::cpu.inst            7778                       # Instruction read bandwidth from this memory (bytes/s)
system.physmem.bw_inst_read::total               7778                       # Instruction read bandwidth from this memory (bytes/s)
system.physmem.bw_write::writebacks         668007579                       # Write bandwidth from this memory (bytes/s)
system.physmem.bw_write::total              668007579                       # Write bandwidth from this memory (bytes/s)
system.physmem.bw_total::writebacks         668007579                       # Total bandwidth to/from this memory (bytes/s)
system.physmem.bw_total::cpu.inst                7778                       # Total bandwidth to/from this memory (bytes/s)
system.physmem.bw_total::cpu.data          1394604527                       # Total bandwidth to/from this memory (bytes/s)
system.physmem.bw_total::total             2062619885                       # Total bandwidth to/from this memory (bytes/s)
system.l2.replacements                        2693676                       # number of replacements
system.l2.tagsinuse                       4090.949493                       # Cycle average of tags in use
system.l2.total_refs                          1384873                       # Total number of references to valid blocks.
system.l2.sampled_refs                        2697772                       # Sample count of references to valid blocks.
system.l2.avg_refs                           0.513340                       # Average number of references to valid blocks.
system.l2.warmup_cycle                   16444909177000                       # Cycle when the warmup percentage was hit.
system.l2.occ_blocks::writebacks            13.278652                       # Average occupied blocks per requestor
system.l2.occ_blocks::cpu.inst               0.029345                       # Average occupied blocks per requestor
system.l2.occ_blocks::cpu.data            4077.641496                       # Average occupied blocks per requestor
system.l2.occ_percent::writebacks            0.003242                       # Average percentage of cache occupancy
system.l2.occ_percent::cpu.inst              0.000007                       # Average percentage of cache occupancy
system.l2.occ_percent::cpu.data              0.995518                       # Average percentage of cache occupancy
system.l2.occ_percent::total                 0.998767                       # Average percentage of cache occupancy
system.l2.ReadReq_hits::cpu.data                53638                       # number of ReadReq hits
system.l2.ReadReq_hits::total                   53638                       # number of ReadReq hits
system.l2.Writeback_hits::writebacks          1339629                       # number of Writeback hits
system.l2.Writeback_hits::total               1339629                       # number of Writeback hits
system.l2.ReadExReq_hits::cpu.data               1065                       # number of ReadExReq hits
system.l2.ReadExReq_hits::total                  1065                       # number of ReadExReq hits
system.l2.demand_hits::cpu.data                 54703                       # number of demand (read+write) hits
system.l2.demand_hits::total                    54703                       # number of demand (read+write) hits
system.l2.overall_hits::cpu.data                54703                       # number of overall hits
system.l2.overall_hits::total                   54703                       # number of overall hits
system.l2.ReadReq_misses::cpu.inst                 15                       # number of ReadReq misses
system.l2.ReadReq_misses::cpu.data            2689364                       # number of ReadReq misses
system.l2.ReadReq_misses::total               2689379                       # number of ReadReq misses
system.l2.ReadExReq_misses::cpu.data               70                       # number of ReadExReq misses
system.l2.ReadExReq_misses::total                  70                       # number of ReadExReq misses
system.l2.demand_misses::cpu.inst                  15                       # number of demand (read+write) misses
system.l2.demand_misses::cpu.data             2689434                       # number of demand (read+write) misses
system.l2.demand_misses::total                2689449                       # number of demand (read+write) misses
system.l2.overall_misses::cpu.inst                 15                       # number of overall misses
system.l2.overall_misses::cpu.data            2689434                       # number of overall misses
system.l2.overall_misses::total               2689449                       # number of overall misses
system.l2.ReadReq_miss_latency::cpu.inst       863000                       # number of ReadReq miss cycles
system.l2.ReadReq_miss_latency::cpu.data 151152144500                       # number of ReadReq miss cycles
system.l2.ReadReq_miss_latency::total    151153007500                       # number of ReadReq miss cycles
system.l2.ReadExReq_miss_latency::cpu.data      3902000                       # number of ReadExReq miss cycles
system.l2.ReadExReq_miss_latency::total       3902000                       # number of ReadExReq miss cycles
system.l2.demand_miss_latency::cpu.inst        863000                       # number of demand (read+write) miss cycles
system.l2.demand_miss_latency::cpu.data  151156046500                       # number of demand (read+write) miss cycles
system.l2.demand_miss_latency::total     151156909500                       # number of demand (read+write) miss cycles
system.l2.overall_miss_latency::cpu.inst       863000                       # number of overall miss cycles
system.l2.overall_miss_latency::cpu.data 151156046500                       # number of overall miss cycles
system.l2.overall_miss_latency::total    151156909500                       # number of overall miss cycles
system.l2.ReadReq_accesses::cpu.inst               15                       # number of ReadReq accesses(hits+misses)
system.l2.ReadReq_accesses::cpu.data          2743002                       # number of ReadReq accesses(hits+misses)
system.l2.ReadReq_accesses::total             2743017                       # number of ReadReq accesses(hits+misses)
system.l2.Writeback_accesses::writebacks      1339629                       # number of Writeback accesses(hits+misses)
system.l2.Writeback_accesses::total           1339629                       # number of Writeback accesses(hits+misses)
system.l2.ReadExReq_accesses::cpu.data           1135                       # number of ReadExReq accesses(hits+misses)
system.l2.ReadExReq_accesses::total              1135                       # number of ReadExReq accesses(hits+misses)
system.l2.demand_accesses::cpu.inst                15                       # number of demand (read+write) accesses
system.l2.demand_accesses::cpu.data           2744137                       # number of demand (read+write) accesses
system.l2.demand_accesses::total              2744152                       # number of demand (read+write) accesses
system.l2.overall_accesses::cpu.inst               15                       # number of overall (read+write) accesses
system.l2.overall_accesses::cpu.data          2744137                       # number of overall (read+write) accesses
system.l2.overall_accesses::total             2744152                       # number of overall (read+write) accesses
system.l2.ReadReq_miss_rate::cpu.inst               1                       # miss rate for ReadReq accesses
system.l2.ReadReq_miss_rate::cpu.data        0.980446                       # miss rate for ReadReq accesses
system.l2.ReadReq_miss_rate::total           0.980446                       # miss rate for ReadReq accesses
system.l2.ReadExReq_miss_rate::cpu.data      0.061674                       # miss rate for ReadExReq accesses
system.l2.ReadExReq_miss_rate::total         0.061674                       # miss rate for ReadExReq accesses
system.l2.demand_miss_rate::cpu.inst                1                       # miss rate for demand accesses
system.l2.demand_miss_rate::cpu.data         0.980065                       # miss rate for demand accesses
system.l2.demand_miss_rate::total            0.980066                       # miss rate for demand accesses
system.l2.overall_miss_rate::cpu.inst               1                       # miss rate for overall accesses
system.l2.overall_miss_rate::cpu.data        0.980065                       # miss rate for overall accesses
system.l2.overall_miss_rate::total           0.980066                       # miss rate for overall accesses
system.l2.ReadReq_avg_miss_latency::cpu.inst 57533.333333                       # average ReadReq miss latency
system.l2.ReadReq_avg_miss_latency::cpu.data 56203.676594                       # average ReadReq miss latency
system.l2.ReadReq_avg_miss_latency::total 56203.684010                       # average ReadReq miss latency
system.l2.ReadExReq_avg_miss_latency::cpu.data 55742.857143                       # average ReadExReq miss latency
system.l2.ReadExReq_avg_miss_latency::total 55742.857143                       # average ReadExReq miss latency
system.l2.demand_avg_miss_latency::cpu.inst 57533.333333                       # average overall miss latency
system.l2.demand_avg_miss_latency::cpu.data 56203.664600                       # average overall miss latency
system.l2.demand_avg_miss_latency::total 56203.672016                       # average overall miss latency
system.l2.overall_avg_miss_latency::cpu.inst 57533.333333                       # average overall miss latency
system.l2.overall_avg_miss_latency::cpu.data 56203.664600                       # average overall miss latency
system.l2.overall_avg_miss_latency::total 56203.672016                       # average overall miss latency
system.l2.blocked_cycles::no_mshrs                  0                       # number of cycles access was blocked
system.l2.blocked_cycles::no_targets                0                       # number of cycles access was blocked
system.l2.blocked::no_mshrs                         0                       # number of cycles access was blocked
system.l2.blocked::no_targets                       0                       # number of cycles access was blocked
system.l2.avg_blocked_cycles::no_mshrs            nan                       # average number of cycles each access was blocked
system.l2.avg_blocked_cycles::no_targets          nan                       # average number of cycles each access was blocked
system.l2.fast_writes                               0                       # number of fast writes performed
system.l2.cache_copies                              0                       # number of cache copies performed
system.l2.writebacks::writebacks              1288223                       # number of writebacks
system.l2.writebacks::total                   1288223                       # number of writebacks
system.l2.ReadReq_mshr_misses::cpu.inst            15                       # number of ReadReq MSHR misses
system.l2.ReadReq_mshr_misses::cpu.data       2689364                       # number of ReadReq MSHR misses
system.l2.ReadReq_mshr_misses::total          2689379                       # number of ReadReq MSHR misses
system.l2.ReadExReq_mshr_misses::cpu.data           70                       # number of ReadExReq MSHR misses
system.l2.ReadExReq_mshr_misses::total             70                       # number of ReadExReq MSHR misses
system.l2.demand_mshr_misses::cpu.inst             15                       # number of demand (read+write) MSHR misses
system.l2.demand_mshr_misses::cpu.data        2689434                       # number of demand (read+write) MSHR misses
system.l2.demand_mshr_misses::total           2689449                       # number of demand (read+write) MSHR misses
system.l2.overall_mshr_misses::cpu.inst            15                       # number of overall MSHR misses
system.l2.overall_mshr_misses::cpu.data       2689434                       # number of overall MSHR misses
system.l2.overall_mshr_misses::total          2689449                       # number of overall MSHR misses
system.l2.ReadReq_mshr_miss_latency::cpu.inst       681500                       # number of ReadReq MSHR miss cycles
system.l2.ReadReq_mshr_miss_latency::cpu.data 118357783500                       # number of ReadReq MSHR miss cycles
system.l2.ReadReq_mshr_miss_latency::total 118358465000                       # number of ReadReq MSHR miss cycles
system.l2.ReadExReq_mshr_miss_latency::cpu.data      3052000                       # number of ReadExReq MSHR miss cycles
system.l2.ReadExReq_mshr_miss_latency::total      3052000                       # number of ReadExReq MSHR miss cycles
system.l2.demand_mshr_miss_latency::cpu.inst       681500                       # number of demand (read+write) MSHR miss cycles
system.l2.demand_mshr_miss_latency::cpu.data 118360835500                       # number of demand (read+write) MSHR miss cycles
system.l2.demand_mshr_miss_latency::total 118361517000                       # number of demand (read+write) MSHR miss cycles
system.l2.overall_mshr_miss_latency::cpu.inst       681500                       # number of overall MSHR miss cycles
system.l2.overall_mshr_miss_latency::cpu.data 118360835500                       # number of overall MSHR miss cycles
system.l2.overall_mshr_miss_latency::total 118361517000                       # number of overall MSHR miss cycles
system.l2.ReadReq_mshr_miss_rate::cpu.inst            1                       # mshr miss rate for ReadReq accesses
system.l2.ReadReq_mshr_miss_rate::cpu.data     0.980446                       # mshr miss rate for ReadReq accesses
system.l2.ReadReq_mshr_miss_rate::total      0.980446                       # mshr miss rate for ReadReq accesses
system.l2.ReadExReq_mshr_miss_rate::cpu.data     0.061674                       # mshr miss rate for ReadExReq accesses
system.l2.ReadExReq_mshr_miss_rate::total     0.061674                       # mshr miss rate for ReadExReq accesses
system.l2.demand_mshr_miss_rate::cpu.inst            1                       # mshr miss rate for demand accesses
system.l2.demand_mshr_miss_rate::cpu.data     0.980065                       # mshr miss rate for demand accesses
system.l2.demand_mshr_miss_rate::total       0.980066                       # mshr miss rate for demand accesses
system.l2.overall_mshr_miss_rate::cpu.inst            1                       # mshr miss rate for overall accesses
system.l2.overall_mshr_miss_rate::cpu.data     0.980065                       # mshr miss rate for overall accesses
system.l2.overall_mshr_miss_rate::total      0.980066                       # mshr miss rate for overall accesses
system.l2.ReadReq_avg_mshr_miss_latency::cpu.inst 45433.333333                       # average ReadReq mshr miss latency
system.l2.ReadReq_avg_mshr_miss_latency::cpu.data 44009.581262                       # average ReadReq mshr miss latency
system.l2.ReadReq_avg_mshr_miss_latency::total 44009.589203                       # average ReadReq mshr miss latency
system.l2.ReadExReq_avg_mshr_miss_latency::cpu.data        43600                       # average ReadExReq mshr miss latency
system.l2.ReadExReq_avg_mshr_miss_latency::total        43600                       # average ReadExReq mshr miss latency
system.l2.demand_avg_mshr_miss_latency::cpu.inst 45433.333333                       # average overall mshr miss latency
system.l2.demand_avg_mshr_miss_latency::cpu.data 44009.570601                       # average overall mshr miss latency
system.l2.demand_avg_mshr_miss_latency::total 44009.578542                       # average overall mshr miss latency
system.l2.overall_avg_mshr_miss_latency::cpu.inst 45433.333333                       # average overall mshr miss latency
system.l2.overall_avg_mshr_miss_latency::cpu.data 44009.570601                       # average overall mshr miss latency
system.l2.overall_avg_mshr_miss_latency::total 44009.578542                       # average overall mshr miss latency
system.l2.no_allocate_misses                        0                       # Number of misses that were no-allocate
system.cpu.branchPred.lookups                10143616                       # Number of BP lookups
system.cpu.branchPred.condPredicted          10143616                       # Number of conditional branches predicted
system.cpu.branchPred.condIncorrect            201416                       # Number of conditional branches incorrect
system.cpu.branchPred.BTBLookups              3536144                       # Number of BTB lookups
system.cpu.branchPred.BTBHits                 3508983                       # Number of BTB hits
system.cpu.branchPred.BTBCorrect                    0                       # Number of correct BTB predictions (this stat may not work properly.
system.cpu.branchPred.BTBHitPct             99.231903                       # BTB Hit Percentage
system.cpu.branchPred.usedRAS                       0                       # Number of times the RAS was used to get a target.
system.cpu.branchPred.RASInCorrect                  0                       # Number of incorrect RAS predictions.
system.cpu.workload.num_syscalls                    0                       # Number of system calls
system.cpu.numCycles                        246842325                       # number of cpu cycles simulated
system.cpu.numWorkItemsStarted                      0                       # number of work items this cpu started
system.cpu.numWorkItemsCompleted                    0                       # number of work items this cpu completed
system.cpu.fetch.icacheStallCycles           11138082                       # Number of cycles fetch is stalled on an Icache miss
system.cpu.fetch.Insts                      112715498                       # Number of instructions fetch has processed
system.cpu.fetch.Branches                    10143616                       # Number of branches that fetch encountered
system.cpu.fetch.predictedBranches            3508983                       # Number of branches that fetch has predicted taken
system.cpu.fetch.Cycles                      43589554                       # Number of cycles fetch has run and was not squashing or blocked
system.cpu.fetch.SquashCycles                 4507951                       # Number of cycles fetch has spent squashing
system.cpu.fetch.BlockedCycles               92428138                       # Number of cycles fetch has spent blocked
system.cpu.fetch.CacheLines                  11059537                       # Number of cache lines fetched
system.cpu.fetch.IcacheSquashes                 68318                       # Number of outstanding Icache misses that were squashed
system.cpu.fetch.rateDist::samples          151462038                       # Number of instructions fetched each cycle (Total)
system.cpu.fetch.rateDist::mean              0.989370                       # Number of instructions fetched each cycle (Total)
system.cpu.fetch.rateDist::stdev             1.675798                       # Number of instructions fetched each cycle (Total)
system.cpu.fetch.rateDist::underflows               0      0.00%      0.00% # Number of instructions fetched each cycle (Total)
system.cpu.fetch.rateDist::0                107888296     71.23%     71.23% # Number of instructions fetched each cycle (Total)
system.cpu.fetch.rateDist::1                  7705028      5.09%     76.32% # Number of instructions fetched each cycle (Total)
system.cpu.fetch.rateDist::2                   650235      0.43%     76.75% # Number of instructions fetched each cycle (Total)
system.cpu.fetch.rateDist::3                    27387      0.02%     76.77% # Number of instructions fetched each cycle (Total)
system.cpu.fetch.rateDist::4                 35191092     23.23%    100.00% # Number of instructions fetched each cycle (Total)
system.cpu.fetch.rateDist::overflows                0      0.00%    100.00% # Number of instructions fetched each cycle (Total)
system.cpu.fetch.rateDist::min_value                0                       # Number of instructions fetched each cycle (Total)
system.cpu.fetch.rateDist::max_value                4                       # Number of instructions fetched each cycle (Total)
system.cpu.fetch.rateDist::total            151462038                       # Number of instructions fetched each cycle (Total)
system.cpu.fetch.branchRate                  0.041094                       # Number of branch fetches per cycle
system.cpu.fetch.rate                        0.456630                       # Number of inst fetches per cycle
system.cpu.decode.IdleCycles                 15681696                       # Number of cycles decode is idle
system.cpu.decode.BlockedCycles              88062038                       # Number of cycles decode is blocked
system.cpu.decode.RunCycles                  38337211                       # Number of cycles decode is running
system.cpu.decode.UnblockCycles               5074814                       # Number of cycles decode is unblocking
system.cpu.decode.SquashCycles                4306264                       # Number of cycles decode is squashing
system.cpu.decode.DecodedInsts              149397268                       # Number of instructions handled by decode
system.cpu.rename.SquashCycles                4306264                       # Number of cycles rename is squashing
system.cpu.rename.IdleCycles                 19755427                       # Number of cycles rename is idle
system.cpu.rename.BlockCycles                75298922                       # Number of cycles rename is blocking
system.cpu.rename.serializeStallCycles              0                       # count of cycles rename stalled for serializing inst
system.cpu.rename.RunCycles                  38719822                       # Number of cycles rename is running
system.cpu.rename.UnblockCycles              13381588                       # Number of cycles rename is unblocking
system.cpu.rename.RenamedInsts              148902933                       # Number of instructions processed by rename
system.cpu.rename.ROBFullEvents                197571                       # Number of times rename has blocked due to ROB full
system.cpu.rename.IQFullEvents                7479281                       # Number of times rename has blocked due to IQ full
system.cpu.rename.LSQFullEvents               3947759                       # Number of times rename has blocked due to LSQ full
system.cpu.rename.RenamedOperands           179371785                       # Number of destination operands rename has renamed
system.cpu.rename.RenameLookups             452855844                       # Number of register rename lookups that rename has made
system.cpu.rename.int_rename_lookups        452855844                       # Number of integer rename lookups
system.cpu.rename.CommittedMaps             158232972                       # Number of HB maps that are committed
system.cpu.rename.UndoneMaps                 21138717                       # Number of HB maps that are undone due to squashing
system.cpu.rename.serializingInsts                  0                       # count of serializing insts renamed
system.cpu.rename.tempSerializingInsts              0                       # count of temporary serializing insts renamed
system.cpu.rename.skidInsts                  27814993                       # count of insts added to the skid buffer
system.cpu.memDep0.insertedLoads             27678843                       # Number of loads inserted to the mem dependence unit.
system.cpu.memDep0.insertedStores            26723389                       # Number of stores inserted to the mem dependence unit.
system.cpu.memDep0.conflictingLoads               140                       # Number of conflicting loads.
system.cpu.memDep0.conflictingStores                7                       # Number of conflicting stores.
system.cpu.iq.iqInstsAdded                  148515274                       # Number of instructions added to the IQ (excludes non-spec)
system.cpu.iq.iqInstsIssued                 137932822                       # Number of instructions issued
system.cpu.iq.iqSquashedInstsIssued            335869                       # Number of squashed instructions issued
system.cpu.iq.iqSquashedInstsExamined        17033845                       # Number of squashed instructions iterated over during squash; mainly for profiling
system.cpu.iq.iqSquashedOperandsExamined     39101350                       # Number of squashed operands that are examined and possibly removed from graph
system.cpu.iq.issued_per_cycle::samples     151462038                       # Number of insts issued each cycle
system.cpu.iq.issued_per_cycle::mean         0.910676                       # Number of insts issued each cycle
system.cpu.iq.issued_per_cycle::stdev        1.282388                       # Number of insts issued each cycle
system.cpu.iq.issued_per_cycle::underflows            0      0.00%      0.00% # Number of insts issued each cycle
system.cpu.iq.issued_per_cycle::0            88203304     58.23%     58.23% # Number of insts issued each cycle
system.cpu.iq.issued_per_cycle::1            22134390     14.61%     72.85% # Number of insts issued each cycle
system.cpu.iq.issued_per_cycle::2            17731426     11.71%     84.56% # Number of insts issued each cycle
system.cpu.iq.issued_per_cycle::3            13236092      8.74%     93.29% # Number of insts issued each cycle
system.cpu.iq.issued_per_cycle::4            10156826      6.71%    100.00% # Number of insts issued each cycle
system.cpu.iq.issued_per_cycle::overflows            0      0.00%    100.00% # Number of insts issued each cycle
system.cpu.iq.issued_per_cycle::min_value            0                       # Number of insts issued each cycle
system.cpu.iq.issued_per_cycle::max_value            4                       # Number of insts issued each cycle
system.cpu.iq.issued_per_cycle::total       151462038                       # Number of insts issued each cycle
system.cpu.iq.fu_full::No_OpClass                   0      0.00%      0.00% # attempts to use FU when none available
system.cpu.iq.fu_full::IntAlu                 5275885    100.00%    100.00% # attempts to use FU when none available
system.cpu.iq.fu_full::IntMult                      0      0.00%    100.00% # attempts to use FU when none available
system.cpu.iq.fu_full::IntDiv                       0      0.00%    100.00% # attempts to use FU when none available
system.cpu.iq.fu_full::FloatAdd                     0      0.00%    100.00% # attempts to use FU when none available
system.cpu.iq.fu_full::FloatCmp                     0      0.00%    100.00% # attempts to use FU when none available
system.cpu.iq.fu_full::FloatCvt                     0      0.00%    100.00% # attempts to use FU when none available
system.cpu.iq.fu_full::FloatMult                    0      0.00%    100.00% # attempts to use FU when none available
system.cpu.iq.fu_full::FloatDiv                     0      0.00%    100.00% # attempts to use FU when none available
system.cpu.iq.fu_full::FloatSqrt                    0      0.00%    100.00% # attempts to use FU when none available
system.cpu.iq.fu_full::SimdAdd                      0      0.00%    100.00% # attempts to use FU when none available
system.cpu.iq.fu_full::SimdAddAcc                   0      0.00%    100.00% # attempts to use FU when none available
system.cpu.iq.fu_full::SimdAlu                      0      0.00%    100.00% # attempts to use FU when none available
system.cpu.iq.fu_full::SimdCmp                      0      0.00%    100.00% # attempts to use FU when none available
system.cpu.iq.fu_full::SimdCvt                      0      0.00%    100.00% # attempts to use FU when none available
system.cpu.iq.fu_full::SimdMisc                     0      0.00%    100.00% # attempts to use FU when none available
system.cpu.iq.fu_full::SimdMult                     0      0.00%    100.00% # attempts to use FU when none available
system.cpu.iq.fu_full::SimdMultAcc                  0      0.00%    100.00% # attempts to use FU when none available
system.cpu.iq.fu_full::SimdShift                    0      0.00%    100.00% # attempts to use FU when none available
system.cpu.iq.fu_full::SimdShiftAcc                 0      0.00%    100.00% # attempts to use FU when none available
system.cpu.iq.fu_full::SimdSqrt                     0      0.00%    100.00% # attempts to use FU when none available
system.cpu.iq.fu_full::SimdFloatAdd                 0      0.00%    100.00% # attempts to use FU when none available
system.cpu.iq.fu_full::SimdFloatAlu                 0      0.00%    100.00% # attempts to use FU when none available
system.cpu.iq.fu_full::SimdFloatCmp                 0      0.00%    100.00% # attempts to use FU when none available
system.cpu.iq.fu_full::SimdFloatCvt                 0      0.00%    100.00% # attempts to use FU when none available
system.cpu.iq.fu_full::SimdFloatDiv                 0      0.00%    100.00% # attempts to use FU when none available
system.cpu.iq.fu_full::SimdFloatMisc                0      0.00%    100.00% # attempts to use FU when none available
system.cpu.iq.fu_full::SimdFloatMult                0      0.00%    100.00% # attempts to use FU when none available
system.cpu.iq.fu_full::SimdFloatMultAcc             0      0.00%    100.00% # attempts to use FU when none available
system.cpu.iq.fu_full::SimdFloatSqrt                0      0.00%    100.00% # attempts to use FU when none available
system.cpu.iq.fu_full::MemRead                      0      0.00%    100.00% # attempts to use FU when none available
system.cpu.iq.fu_full::MemWrite                     0      0.00%    100.00% # attempts to use FU when none available
system.cpu.iq.fu_full::IprAccess                    0      0.00%    100.00% # attempts to use FU when none available
system.cpu.iq.fu_full::InstPrefetch                 0      0.00%    100.00% # attempts to use FU when none available
system.cpu.iq.FU_type_0::No_OpClass                41      0.00%      0.00% # Type of FU issued
system.cpu.iq.FU_type_0::IntAlu              87597484     63.51%     63.51% # Type of FU issued
system.cpu.iq.FU_type_0::IntMult                    0      0.00%     63.51% # Type of FU issued
system.cpu.iq.FU_type_0::IntDiv                     0      0.00%     63.51% # Type of FU issued
system.cpu.iq.FU_type_0::FloatAdd                   0      0.00%     63.51% # Type of FU issued
system.cpu.iq.FU_type_0::FloatCmp                   0      0.00%     63.51% # Type of FU issued
system.cpu.iq.FU_type_0::FloatCvt                   0      0.00%     63.51% # Type of FU issued
system.cpu.iq.FU_type_0::FloatMult                  0      0.00%     63.51% # Type of FU issued
system.cpu.iq.FU_type_0::FloatDiv                   0      0.00%     63.51% # Type of FU issued
system.cpu.iq.FU_type_0::FloatSqrt                  0      0.00%     63.51% # Type of FU issued
system.cpu.iq.FU_type_0::SimdAdd                    0      0.00%     63.51% # Type of FU issued
system.cpu.iq.FU_type_0::SimdAddAcc                 0      0.00%     63.51% # Type of FU issued
system.cpu.iq.FU_type_0::SimdAlu                    0      0.00%     63.51% # Type of FU issued
system.cpu.iq.FU_type_0::SimdCmp                    0      0.00%     63.51% # Type of FU issued
system.cpu.iq.FU_type_0::SimdCvt                    0      0.00%     63.51% # Type of FU issued
system.cpu.iq.FU_type_0::SimdMisc                   0      0.00%     63.51% # Type of FU issued
system.cpu.iq.FU_type_0::SimdMult                   0      0.00%     63.51% # Type of FU issued
system.cpu.iq.FU_type_0::SimdMultAcc                0      0.00%     63.51% # Type of FU issued
system.cpu.iq.FU_type_0::SimdShift                  0      0.00%     63.51% # Type of FU issued
system.cpu.iq.FU_type_0::SimdShiftAcc               0      0.00%     63.51% # Type of FU issued
system.cpu.iq.FU_type_0::SimdSqrt                   0      0.00%     63.51% # Type of FU issued
system.cpu.iq.FU_type_0::SimdFloatAdd               0      0.00%     63.51% # Type of FU issued
system.cpu.iq.FU_type_0::SimdFloatAlu               0      0.00%     63.51% # Type of FU issued
system.cpu.iq.FU_type_0::SimdFloatCmp               0      0.00%     63.51% # Type of FU issued
system.cpu.iq.FU_type_0::SimdFloatCvt               0      0.00%     63.51% # Type of FU issued
system.cpu.iq.FU_type_0::SimdFloatDiv               0      0.00%     63.51% # Type of FU issued
system.cpu.iq.FU_type_0::SimdFloatMisc              0      0.00%     63.51% # Type of FU issued
system.cpu.iq.FU_type_0::SimdFloatMult              0      0.00%     63.51% # Type of FU issued
system.cpu.iq.FU_type_0::SimdFloatMultAcc            0      0.00%     63.51% # Type of FU issued
system.cpu.iq.FU_type_0::SimdFloatSqrt              0      0.00%     63.51% # Type of FU issued
system.cpu.iq.FU_type_0::MemRead             25359201     18.39%     81.89% # Type of FU issued
system.cpu.iq.FU_type_0::MemWrite            24976096     18.11%    100.00% # Type of FU issued
system.cpu.iq.FU_type_0::IprAccess                  0      0.00%    100.00% # Type of FU issued
system.cpu.iq.FU_type_0::InstPrefetch               0      0.00%    100.00% # Type of FU issued
system.cpu.iq.FU_type_0::total              137932822                       # Type of FU issued
system.cpu.iq.rate                           0.558789                       # Inst issue rate
system.cpu.iq.fu_busy_cnt                     5275885                       # FU busy when requested
system.cpu.iq.fu_busy_rate                   0.038250                       # FU busy rate (busy events/executed inst)
system.cpu.iq.int_inst_queue_reads          432939436                       # Number of integer instruction queue reads
system.cpu.iq.int_inst_queue_writes         165549155                       # Number of integer instruction queue writes
system.cpu.iq.int_inst_queue_wakeup_accesses    137438832                       # Number of integer instruction queue wakeup accesses
system.cpu.iq.fp_inst_queue_reads                   0                       # Number of floating instruction queue reads
system.cpu.iq.fp_inst_queue_writes                  0                       # Number of floating instruction queue writes
system.cpu.iq.fp_inst_queue_wakeup_accesses            0                       # Number of floating instruction queue wakeup accesses
system.cpu.iq.int_alu_accesses              143208666                       # Number of integer alu accesses
system.cpu.iq.fp_alu_accesses                       0                       # Number of floating point alu accesses
system.cpu.iew.lsq.thread0.forwLoads              472                       # Number of loads that had data forwarded from stores
system.cpu.iew.lsq.thread0.invAddrLoads             0                       # Number of loads ignored due to an invalid address
system.cpu.iew.lsq.thread0.squashedLoads      3581045                       # Number of loads squashed
system.cpu.iew.lsq.thread0.ignoredResponses            0                       # Number of memory responses ignored because the instruction is squashed
system.cpu.iew.lsq.thread0.memOrderViolation           37                       # Number of memory ordering violations
system.cpu.iew.lsq.thread0.squashedStores      2368082                       # Number of stores squashed
system.cpu.iew.lsq.thread0.invAddrSwpfs             0                       # Number of software prefetches ignored due to an invalid address
system.cpu.iew.lsq.thread0.blockedLoads             0                       # Number of blocked loads due to partial load-store forwarding
system.cpu.iew.lsq.thread0.rescheduledLoads            0                       # Number of loads that were rescheduled
system.cpu.iew.lsq.thread0.cacheBlocked           294                       # Number of times an access to memory failed due to the cache being blocked
system.cpu.iew.iewIdleCycles                        0                       # Number of cycles IEW is idle
system.cpu.iew.iewSquashCycles                4306264                       # Number of cycles IEW is squashing
system.cpu.iew.iewBlockCycles                63628209                       # Number of cycles IEW is blocking
system.cpu.iew.iewUnblockCycles               1618339                       # Number of cycles IEW is unblocking
system.cpu.iew.iewDispatchedInsts           148515274                       # Number of instructions dispatched to IQ
system.cpu.iew.iewDispSquashedInsts                 2                       # Number of squashed instructions skipped by dispatch
system.cpu.iew.iewDispLoadInsts              27678843                       # Number of dispatched load instructions
system.cpu.iew.iewDispStoreInsts             26723389                       # Number of dispatched store instructions
system.cpu.iew.iewDispNonSpecInsts                  0                       # Number of dispatched non-speculative instructions
system.cpu.iew.iewIQFullEvents                1101542                       # Number of times the IQ has become full, causing a stall
system.cpu.iew.iewLSQFullEvents                  1731                       # Number of times the LSQ has become full, causing a stall
system.cpu.iew.memOrderViolationEvents             37                       # Number of memory order violations
system.cpu.iew.predictedTakenIncorrect          50716                       # Number of branches that were predicted taken incorrectly
system.cpu.iew.predictedNotTakenIncorrect       169384                       # Number of branches that were predicted not taken incorrectly
system.cpu.iew.branchMispredicts               220100                       # Number of branch mispredicts detected at execute
system.cpu.iew.iewExecutedInsts             137771302                       # Number of executed instructions
system.cpu.iew.iewExecLoadInsts              25295787                       # Number of load instructions executed
system.cpu.iew.iewExecSquashedInsts            161520                       # Number of squashed instructions skipped in execute
system.cpu.iew.exec_swp                             0                       # number of swp insts executed
system.cpu.iew.exec_nop                             0                       # number of nop insts executed
system.cpu.iew.exec_refs                     50224034                       # number of memory reference insts executed
system.cpu.iew.exec_branches                  8832921                       # Number of branches executed
system.cpu.iew.exec_stores                   24928247                       # Number of stores executed
system.cpu.iew.exec_rate                     0.558135                       # Inst execution rate
system.cpu.iew.wb_sent                      137534781                       # cumulative count of insts sent to commit
system.cpu.iew.wb_count                     137438832                       # cumulative count of insts written-back
system.cpu.iew.wb_producers                 100885291                       # num instructions producing a value
system.cpu.iew.wb_consumers                 217858283                       # num instructions consuming a value
system.cpu.iew.wb_penalized                         0                       # number of instrctions required to write to 'other' IQ
system.cpu.iew.wb_rate                       0.556788                       # insts written-back per cycle
system.cpu.iew.wb_fanout                     0.463078                       # average fanout of values written-back
system.cpu.iew.wb_penalized_rate                    0                       # fraction of instructions written-back that wrote to 'other' IQ
system.cpu.commit.commitSquashedInsts        17034353                       # The number of squashed insts skipped by commit
system.cpu.commit.branchMispredicts            201416                       # The number of times a branch was mispredicted
system.cpu.commit.committed_per_cycle::samples    147155774                       # Number of insts commited each cycle
system.cpu.commit.committed_per_cycle::mean     0.893481                       # Number of insts commited each cycle
system.cpu.commit.committed_per_cycle::stdev     1.368359                       # Number of insts commited each cycle
system.cpu.commit.committed_per_cycle::underflows            0      0.00%      0.00% # Number of insts commited each cycle
system.cpu.commit.committed_per_cycle::0     89784812     61.01%     61.01% # Number of insts commited each cycle
system.cpu.commit.committed_per_cycle::1     24495588     16.65%     77.66% # Number of insts commited each cycle
system.cpu.commit.committed_per_cycle::2      7061471      4.80%     82.46% # Number of insts commited each cycle
system.cpu.commit.committed_per_cycle::3     10393235      7.06%     89.52% # Number of insts commited each cycle
system.cpu.commit.committed_per_cycle::4     15420668     10.48%    100.00% # Number of insts commited each cycle
system.cpu.commit.committed_per_cycle::overflows            0      0.00%    100.00% # Number of insts commited each cycle
system.cpu.commit.committed_per_cycle::min_value            0                       # Number of insts commited each cycle
system.cpu.commit.committed_per_cycle::max_value            4                       # Number of insts commited each cycle
system.cpu.commit.committed_per_cycle::total    147155774                       # Number of insts commited each cycle
system.cpu.commit.committedInsts            100000003                       # Number of instructions committed
system.cpu.commit.committedOps              131480907                       # Number of ops (including micro ops) committed
system.cpu.commit.swp_count                         0                       # Number of s/w prefetches committed
system.cpu.commit.refs                       48453084                       # Number of memory references committed
system.cpu.commit.loads                      24097787                       # Number of loads committed
system.cpu.commit.membars                           0                       # Number of memory barriers committed
system.cpu.commit.branches                    8581311                       # Number of branches committed
system.cpu.commit.fp_insts                          0                       # Number of committed floating point instructions.
system.cpu.commit.int_insts                 131480906                       # Number of committed integer instructions.
system.cpu.commit.function_calls                    0                       # Number of function calls committed.
system.cpu.commit.bw_lim_events              15420668                       # number cycles where commit BW limit reached
system.cpu.commit.bw_limited                        0                       # number of insts not committed due to BW limits
system.cpu.rob.rob_reads                    280250366                       # The number of ROB reads
system.cpu.rob.rob_writes                   301336859                       # The number of ROB writes
system.cpu.timesIdled                         1898523                       # Number of times that the entire CPU went into an idle state and unscheduled itself
system.cpu.idleCycles                        95380287                       # Total number of cycles that the CPU has spent unscheduled due to idling
system.cpu.committedInsts                   100000003                       # Number of Instructions Simulated
system.cpu.committedOps                     131480907                       # Number of Ops (including micro ops) Simulated
system.cpu.committedInsts_total             100000003                       # Number of Instructions Simulated
system.cpu.cpi                               2.468423                       # CPI: Cycles Per Instruction
system.cpu.cpi_total                         2.468423                       # CPI: Total CPI of All Threads
system.cpu.ipc                               0.405117                       # IPC: Instructions Per Cycle
system.cpu.ipc_total                         0.405117                       # IPC: Total IPC of All Threads
system.cpu.int_regfile_reads                344544561                       # number of integer regfile reads
system.cpu.int_regfile_writes               164603112                       # number of integer regfile writes
system.cpu.misc_regfile_reads                68939024                       # number of misc regfile reads
system.cpu.itb_walker_cache.replacements            0                       # number of replacements
system.cpu.itb_walker_cache.tagsinuse               0                       # Cycle average of tags in use
system.cpu.itb_walker_cache.total_refs              0                       # Total number of references to valid blocks.
system.cpu.itb_walker_cache.sampled_refs            0                       # Sample count of references to valid blocks.
system.cpu.itb_walker_cache.avg_refs              nan                       # Average number of references to valid blocks.
system.cpu.itb_walker_cache.warmup_cycle            0                       # Cycle when the warmup percentage was hit.
system.cpu.itb_walker_cache.blocked_cycles::no_mshrs            0                       # number of cycles access was blocked
system.cpu.itb_walker_cache.blocked_cycles::no_targets            0                       # number of cycles access was blocked
system.cpu.itb_walker_cache.blocked::no_mshrs            0                       # number of cycles access was blocked
system.cpu.itb_walker_cache.blocked::no_targets            0                       # number of cycles access was blocked
system.cpu.itb_walker_cache.avg_blocked_cycles::no_mshrs          nan                       # average number of cycles each access was blocked
system.cpu.itb_walker_cache.avg_blocked_cycles::no_targets          nan                       # average number of cycles each access was blocked
system.cpu.itb_walker_cache.fast_writes             0                       # number of fast writes performed
system.cpu.itb_walker_cache.cache_copies            0                       # number of cache copies performed
system.cpu.itb_walker_cache.no_allocate_misses            0                       # Number of misses that were no-allocate
system.cpu.dtb_walker_cache.replacements            0                       # number of replacements
system.cpu.dtb_walker_cache.tagsinuse               0                       # Cycle average of tags in use
system.cpu.dtb_walker_cache.total_refs              0                       # Total number of references to valid blocks.
system.cpu.dtb_walker_cache.sampled_refs            0                       # Sample count of references to valid blocks.
system.cpu.dtb_walker_cache.avg_refs              nan                       # Average number of references to valid blocks.
system.cpu.dtb_walker_cache.warmup_cycle            0                       # Cycle when the warmup percentage was hit.
system.cpu.dtb_walker_cache.blocked_cycles::no_mshrs            0                       # number of cycles access was blocked
system.cpu.dtb_walker_cache.blocked_cycles::no_targets            0                       # number of cycles access was blocked
system.cpu.dtb_walker_cache.blocked::no_mshrs            0                       # number of cycles access was blocked
system.cpu.dtb_walker_cache.blocked::no_targets            0                       # number of cycles access was blocked
system.cpu.dtb_walker_cache.avg_blocked_cycles::no_mshrs          nan                       # average number of cycles each access was blocked
system.cpu.dtb_walker_cache.avg_blocked_cycles::no_targets          nan                       # average number of cycles each access was blocked
system.cpu.dtb_walker_cache.fast_writes             0                       # number of fast writes performed
system.cpu.dtb_walker_cache.cache_copies            0                       # number of cache copies performed
system.cpu.dtb_walker_cache.no_allocate_misses            0                       # Number of misses that were no-allocate
system.cpu.icache.replacements                      0                       # number of replacements
system.cpu.icache.tagsinuse                 14.999920                       # Cycle average of tags in use
system.cpu.icache.total_refs                 11059517                       # Total number of references to valid blocks.
system.cpu.icache.sampled_refs                     15                       # Sample count of references to valid blocks.
system.cpu.icache.avg_refs               737301.133333                       # Average number of references to valid blocks.
system.cpu.icache.warmup_cycle                      0                       # Cycle when the warmup percentage was hit.
system.cpu.icache.occ_blocks::cpu.inst      14.999920                       # Average occupied blocks per requestor
system.cpu.icache.occ_percent::cpu.inst      0.014648                       # Average percentage of cache occupancy
system.cpu.icache.occ_percent::total         0.014648                       # Average percentage of cache occupancy
system.cpu.icache.ReadReq_hits::cpu.inst     11059517                       # number of ReadReq hits
system.cpu.icache.ReadReq_hits::total        11059517                       # number of ReadReq hits
system.cpu.icache.demand_hits::cpu.inst      11059517                       # number of demand (read+write) hits
system.cpu.icache.demand_hits::total         11059517                       # number of demand (read+write) hits
system.cpu.icache.overall_hits::cpu.inst     11059517                       # number of overall hits
system.cpu.icache.overall_hits::total        11059517                       # number of overall hits
system.cpu.icache.ReadReq_misses::cpu.inst           20                       # number of ReadReq misses
system.cpu.icache.ReadReq_misses::total            20                       # number of ReadReq misses
system.cpu.icache.demand_misses::cpu.inst           20                       # number of demand (read+write) misses
system.cpu.icache.demand_misses::total             20                       # number of demand (read+write) misses
system.cpu.icache.overall_misses::cpu.inst           20                       # number of overall misses
system.cpu.icache.overall_misses::total            20                       # number of overall misses
system.cpu.icache.ReadReq_miss_latency::cpu.inst      1108500                       # number of ReadReq miss cycles
system.cpu.icache.ReadReq_miss_latency::total      1108500                       # number of ReadReq miss cycles
system.cpu.icache.demand_miss_latency::cpu.inst      1108500                       # number of demand (read+write) miss cycles
system.cpu.icache.demand_miss_latency::total      1108500                       # number of demand (read+write) miss cycles
system.cpu.icache.overall_miss_latency::cpu.inst      1108500                       # number of overall miss cycles
system.cpu.icache.overall_miss_latency::total      1108500                       # number of overall miss cycles
system.cpu.icache.ReadReq_accesses::cpu.inst     11059537                       # number of ReadReq accesses(hits+misses)
system.cpu.icache.ReadReq_accesses::total     11059537                       # number of ReadReq accesses(hits+misses)
system.cpu.icache.demand_accesses::cpu.inst     11059537                       # number of demand (read+write) accesses
system.cpu.icache.demand_accesses::total     11059537                       # number of demand (read+write) accesses
system.cpu.icache.overall_accesses::cpu.inst     11059537                       # number of overall (read+write) accesses
system.cpu.icache.overall_accesses::total     11059537                       # number of overall (read+write) accesses
system.cpu.icache.ReadReq_miss_rate::cpu.inst     0.000002                       # miss rate for ReadReq accesses
system.cpu.icache.ReadReq_miss_rate::total     0.000002                       # miss rate for ReadReq accesses
system.cpu.icache.demand_miss_rate::cpu.inst     0.000002                       # miss rate for demand accesses
system.cpu.icache.demand_miss_rate::total     0.000002                       # miss rate for demand accesses
system.cpu.icache.overall_miss_rate::cpu.inst     0.000002                       # miss rate for overall accesses
system.cpu.icache.overall_miss_rate::total     0.000002                       # miss rate for overall accesses
system.cpu.icache.ReadReq_avg_miss_latency::cpu.inst        55425                       # average ReadReq miss latency
system.cpu.icache.ReadReq_avg_miss_latency::total        55425                       # average ReadReq miss latency
system.cpu.icache.demand_avg_miss_latency::cpu.inst        55425                       # average overall miss latency
system.cpu.icache.demand_avg_miss_latency::total        55425                       # average overall miss latency
system.cpu.icache.overall_avg_miss_latency::cpu.inst        55425                       # average overall miss latency
system.cpu.icache.overall_avg_miss_latency::total        55425                       # average overall miss latency
system.cpu.icache.blocked_cycles::no_mshrs            0                       # number of cycles access was blocked
system.cpu.icache.blocked_cycles::no_targets            0                       # number of cycles access was blocked
system.cpu.icache.blocked::no_mshrs                 0                       # number of cycles access was blocked
system.cpu.icache.blocked::no_targets               0                       # number of cycles access was blocked
system.cpu.icache.avg_blocked_cycles::no_mshrs          nan                       # average number of cycles each access was blocked
system.cpu.icache.avg_blocked_cycles::no_targets          nan                       # average number of cycles each access was blocked
system.cpu.icache.fast_writes                       0                       # number of fast writes performed
system.cpu.icache.cache_copies                      0                       # number of cache copies performed
system.cpu.icache.ReadReq_mshr_hits::cpu.inst            5                       # number of ReadReq MSHR hits
system.cpu.icache.ReadReq_mshr_hits::total            5                       # number of ReadReq MSHR hits
system.cpu.icache.demand_mshr_hits::cpu.inst            5                       # number of demand (read+write) MSHR hits
system.cpu.icache.demand_mshr_hits::total            5                       # number of demand (read+write) MSHR hits
system.cpu.icache.overall_mshr_hits::cpu.inst            5                       # number of overall MSHR hits
system.cpu.icache.overall_mshr_hits::total            5                       # number of overall MSHR hits
system.cpu.icache.ReadReq_mshr_misses::cpu.inst           15                       # number of ReadReq MSHR misses
system.cpu.icache.ReadReq_mshr_misses::total           15                       # number of ReadReq MSHR misses
system.cpu.icache.demand_mshr_misses::cpu.inst           15                       # number of demand (read+write) MSHR misses
system.cpu.icache.demand_mshr_misses::total           15                       # number of demand (read+write) MSHR misses
system.cpu.icache.overall_mshr_misses::cpu.inst           15                       # number of overall MSHR misses
system.cpu.icache.overall_mshr_misses::total           15                       # number of overall MSHR misses
system.cpu.icache.ReadReq_mshr_miss_latency::cpu.inst       878500                       # number of ReadReq MSHR miss cycles
system.cpu.icache.ReadReq_mshr_miss_latency::total       878500                       # number of ReadReq MSHR miss cycles
system.cpu.icache.demand_mshr_miss_latency::cpu.inst       878500                       # number of demand (read+write) MSHR miss cycles
system.cpu.icache.demand_mshr_miss_latency::total       878500                       # number of demand (read+write) MSHR miss cycles
system.cpu.icache.overall_mshr_miss_latency::cpu.inst       878500                       # number of overall MSHR miss cycles
system.cpu.icache.overall_mshr_miss_latency::total       878500                       # number of overall MSHR miss cycles
system.cpu.icache.ReadReq_mshr_miss_rate::cpu.inst     0.000001                       # mshr miss rate for ReadReq accesses
system.cpu.icache.ReadReq_mshr_miss_rate::total     0.000001                       # mshr miss rate for ReadReq accesses
system.cpu.icache.demand_mshr_miss_rate::cpu.inst     0.000001                       # mshr miss rate for demand accesses
system.cpu.icache.demand_mshr_miss_rate::total     0.000001                       # mshr miss rate for demand accesses
system.cpu.icache.overall_mshr_miss_rate::cpu.inst     0.000001                       # mshr miss rate for overall accesses
system.cpu.icache.overall_mshr_miss_rate::total     0.000001                       # mshr miss rate for overall accesses
system.cpu.icache.ReadReq_avg_mshr_miss_latency::cpu.inst 58566.666667                       # average ReadReq mshr miss latency
system.cpu.icache.ReadReq_avg_mshr_miss_latency::total 58566.666667                       # average ReadReq mshr miss latency
system.cpu.icache.demand_avg_mshr_miss_latency::cpu.inst 58566.666667                       # average overall mshr miss latency
system.cpu.icache.demand_avg_mshr_miss_latency::total 58566.666667                       # average overall mshr miss latency
system.cpu.icache.overall_avg_mshr_miss_latency::cpu.inst 58566.666667                       # average overall mshr miss latency
system.cpu.icache.overall_avg_mshr_miss_latency::total 58566.666667                       # average overall mshr miss latency
system.cpu.icache.no_allocate_misses                0                       # Number of misses that were no-allocate
system.cpu.dcache.replacements                2743112                       # number of replacements
system.cpu.dcache.tagsinuse               1023.686443                       # Cycle average of tags in use
system.cpu.dcache.total_refs                 45833169                       # Total number of references to valid blocks.
system.cpu.dcache.sampled_refs                2744136                       # Sample count of references to valid blocks.
system.cpu.dcache.avg_refs                  16.702222                       # Average number of references to valid blocks.
system.cpu.dcache.warmup_cycle           16444562476000                       # Cycle when the warmup percentage was hit.
system.cpu.dcache.occ_blocks::cpu.data    1023.686443                       # Average occupied blocks per requestor
system.cpu.dcache.occ_percent::cpu.data      0.999694                       # Average percentage of cache occupancy
system.cpu.dcache.occ_percent::total         0.999694                       # Average percentage of cache occupancy
system.cpu.dcache.ReadReq_hits::cpu.data     21479015                       # number of ReadReq hits
system.cpu.dcache.ReadReq_hits::total        21479015                       # number of ReadReq hits
system.cpu.dcache.WriteReq_hits::cpu.data     24354154                       # number of WriteReq hits
system.cpu.dcache.WriteReq_hits::total       24354154                       # number of WriteReq hits
system.cpu.dcache.demand_hits::cpu.data      45833169                       # number of demand (read+write) hits
system.cpu.dcache.demand_hits::total         45833169                       # number of demand (read+write) hits
system.cpu.dcache.overall_hits::cpu.data     45833169                       # number of overall hits
system.cpu.dcache.overall_hits::total        45833169                       # number of overall hits
system.cpu.dcache.ReadReq_misses::cpu.data      3755740                       # number of ReadReq misses
system.cpu.dcache.ReadReq_misses::total       3755740                       # number of ReadReq misses
system.cpu.dcache.WriteReq_misses::cpu.data         1135                       # number of WriteReq misses
system.cpu.dcache.WriteReq_misses::total         1135                       # number of WriteReq misses
system.cpu.dcache.demand_misses::cpu.data      3756875                       # number of demand (read+write) misses
system.cpu.dcache.demand_misses::total        3756875                       # number of demand (read+write) misses
system.cpu.dcache.overall_misses::cpu.data      3756875                       # number of overall misses
system.cpu.dcache.overall_misses::total       3756875                       # number of overall misses
system.cpu.dcache.ReadReq_miss_latency::cpu.data 213521075000                       # number of ReadReq miss cycles
system.cpu.dcache.ReadReq_miss_latency::total 213521075000                       # number of ReadReq miss cycles
system.cpu.dcache.WriteReq_miss_latency::cpu.data     18107499                       # number of WriteReq miss cycles
system.cpu.dcache.WriteReq_miss_latency::total     18107499                       # number of WriteReq miss cycles
system.cpu.dcache.demand_miss_latency::cpu.data 213539182499                       # number of demand (read+write) miss cycles
system.cpu.dcache.demand_miss_latency::total 213539182499                       # number of demand (read+write) miss cycles
system.cpu.dcache.overall_miss_latency::cpu.data 213539182499                       # number of overall miss cycles
system.cpu.dcache.overall_miss_latency::total 213539182499                       # number of overall miss cycles
system.cpu.dcache.ReadReq_accesses::cpu.data     25234755                       # number of ReadReq accesses(hits+misses)
system.cpu.dcache.ReadReq_accesses::total     25234755                       # number of ReadReq accesses(hits+misses)
system.cpu.dcache.WriteReq_accesses::cpu.data     24355289                       # number of WriteReq accesses(hits+misses)
system.cpu.dcache.WriteReq_accesses::total     24355289                       # number of WriteReq accesses(hits+misses)
system.cpu.dcache.demand_accesses::cpu.data     49590044                       # number of demand (read+write) accesses
system.cpu.dcache.demand_accesses::total     49590044                       # number of demand (read+write) accesses
system.cpu.dcache.overall_accesses::cpu.data     49590044                       # number of overall (read+write) accesses
system.cpu.dcache.overall_accesses::total     49590044                       # number of overall (read+write) accesses
system.cpu.dcache.ReadReq_miss_rate::cpu.data     0.148832                       # miss rate for ReadReq accesses
system.cpu.dcache.ReadReq_miss_rate::total     0.148832                       # miss rate for ReadReq accesses
system.cpu.dcache.WriteReq_miss_rate::cpu.data     0.000047                       # miss rate for WriteReq accesses
system.cpu.dcache.WriteReq_miss_rate::total     0.000047                       # miss rate for WriteReq accesses
system.cpu.dcache.demand_miss_rate::cpu.data     0.075759                       # miss rate for demand accesses
system.cpu.dcache.demand_miss_rate::total     0.075759                       # miss rate for demand accesses
system.cpu.dcache.overall_miss_rate::cpu.data     0.075759                       # miss rate for overall accesses
system.cpu.dcache.overall_miss_rate::total     0.075759                       # miss rate for overall accesses
system.cpu.dcache.ReadReq_avg_miss_latency::cpu.data 56851.931976                       # average ReadReq miss latency
system.cpu.dcache.ReadReq_avg_miss_latency::total 56851.931976                       # average ReadReq miss latency
system.cpu.dcache.WriteReq_avg_miss_latency::cpu.data 15953.743612                       # average WriteReq miss latency
system.cpu.dcache.WriteReq_avg_miss_latency::total 15953.743612                       # average WriteReq miss latency
system.cpu.dcache.demand_avg_miss_latency::cpu.data 56839.576110                       # average overall miss latency
system.cpu.dcache.demand_avg_miss_latency::total 56839.576110                       # average overall miss latency
system.cpu.dcache.overall_avg_miss_latency::cpu.data 56839.576110                       # average overall miss latency
system.cpu.dcache.overall_avg_miss_latency::total 56839.576110                       # average overall miss latency
system.cpu.dcache.blocked_cycles::no_mshrs       725556                       # number of cycles access was blocked
system.cpu.dcache.blocked_cycles::no_targets            0                       # number of cycles access was blocked
system.cpu.dcache.blocked::no_mshrs             79597                       # number of cycles access was blocked
system.cpu.dcache.blocked::no_targets               0                       # number of cycles access was blocked
system.cpu.dcache.avg_blocked_cycles::no_mshrs     9.115369                       # average number of cycles each access was blocked
system.cpu.dcache.avg_blocked_cycles::no_targets          nan                       # average number of cycles each access was blocked
system.cpu.dcache.fast_writes                       0                       # number of fast writes performed
system.cpu.dcache.cache_copies                      0                       # number of cache copies performed
system.cpu.dcache.writebacks::writebacks      1339629                       # number of writebacks
system.cpu.dcache.writebacks::total           1339629                       # number of writebacks
system.cpu.dcache.ReadReq_mshr_hits::cpu.data      1012736                       # number of ReadReq MSHR hits
system.cpu.dcache.ReadReq_mshr_hits::total      1012736                       # number of ReadReq MSHR hits
system.cpu.dcache.WriteReq_mshr_hits::cpu.data            1                       # number of WriteReq MSHR hits
system.cpu.dcache.WriteReq_mshr_hits::total            1                       # number of WriteReq MSHR hits
system.cpu.dcache.demand_mshr_hits::cpu.data      1012737                       # number of demand (read+write) MSHR hits
system.cpu.dcache.demand_mshr_hits::total      1012737                       # number of demand (read+write) MSHR hits
system.cpu.dcache.overall_mshr_hits::cpu.data      1012737                       # number of overall MSHR hits
system.cpu.dcache.overall_mshr_hits::total      1012737                       # number of overall MSHR hits
system.cpu.dcache.ReadReq_mshr_misses::cpu.data      2743004                       # number of ReadReq MSHR misses
system.cpu.dcache.ReadReq_mshr_misses::total      2743004                       # number of ReadReq MSHR misses
system.cpu.dcache.WriteReq_mshr_misses::cpu.data         1134                       # number of WriteReq MSHR misses
system.cpu.dcache.WriteReq_mshr_misses::total         1134                       # number of WriteReq MSHR misses
system.cpu.dcache.demand_mshr_misses::cpu.data      2744138                       # number of demand (read+write) MSHR misses
system.cpu.dcache.demand_mshr_misses::total      2744138                       # number of demand (read+write) MSHR misses
system.cpu.dcache.overall_mshr_misses::cpu.data      2744138                       # number of overall MSHR misses
system.cpu.dcache.overall_mshr_misses::total      2744138                       # number of overall MSHR misses
system.cpu.dcache.ReadReq_mshr_miss_latency::cpu.data 154610776000                       # number of ReadReq MSHR miss cycles
system.cpu.dcache.ReadReq_mshr_miss_latency::total 154610776000                       # number of ReadReq MSHR miss cycles
system.cpu.dcache.WriteReq_mshr_miss_latency::cpu.data     15825999                       # number of WriteReq MSHR miss cycles
system.cpu.dcache.WriteReq_mshr_miss_latency::total     15825999                       # number of WriteReq MSHR miss cycles
system.cpu.dcache.demand_mshr_miss_latency::cpu.data 154626601999                       # number of demand (read+write) MSHR miss cycles
system.cpu.dcache.demand_mshr_miss_latency::total 154626601999                       # number of demand (read+write) MSHR miss cycles
system.cpu.dcache.overall_mshr_miss_latency::cpu.data 154626601999                       # number of overall MSHR miss cycles
system.cpu.dcache.overall_mshr_miss_latency::total 154626601999                       # number of overall MSHR miss cycles
system.cpu.dcache.ReadReq_mshr_miss_rate::cpu.data     0.108699                       # mshr miss rate for ReadReq accesses
system.cpu.dcache.ReadReq_mshr_miss_rate::total     0.108699                       # mshr miss rate for ReadReq accesses
system.cpu.dcache.WriteReq_mshr_miss_rate::cpu.data     0.000047                       # mshr miss rate for WriteReq accesses
system.cpu.dcache.WriteReq_mshr_miss_rate::total     0.000047                       # mshr miss rate for WriteReq accesses
system.cpu.dcache.demand_mshr_miss_rate::cpu.data     0.055336                       # mshr miss rate for demand accesses
system.cpu.dcache.demand_mshr_miss_rate::total     0.055336                       # mshr miss rate for demand accesses
system.cpu.dcache.overall_mshr_miss_rate::cpu.data     0.055336                       # mshr miss rate for overall accesses
system.cpu.dcache.overall_mshr_miss_rate::total     0.055336                       # mshr miss rate for overall accesses
system.cpu.dcache.ReadReq_avg_mshr_miss_latency::cpu.data 56365.494181                       # average ReadReq mshr miss latency
system.cpu.dcache.ReadReq_avg_mshr_miss_latency::total 56365.494181                       # average ReadReq mshr miss latency
system.cpu.dcache.WriteReq_avg_mshr_miss_latency::cpu.data 13955.907407                       # average WriteReq mshr miss latency
system.cpu.dcache.WriteReq_avg_mshr_miss_latency::total 13955.907407                       # average WriteReq mshr miss latency
system.cpu.dcache.demand_avg_mshr_miss_latency::cpu.data 56347.968651                       # average overall mshr miss latency
system.cpu.dcache.demand_avg_mshr_miss_latency::total 56347.968651                       # average overall mshr miss latency
system.cpu.dcache.overall_avg_mshr_miss_latency::cpu.data 56347.968651                       # average overall mshr miss latency
system.cpu.dcache.overall_avg_mshr_miss_latency::total 56347.968651                       # average overall mshr miss latency
system.cpu.dcache.no_allocate_misses                0                       # Number of misses that were no-allocate

---------- End Simulation Statistics   ----------
