
---------- Begin Simulation Statistics ----------
sim_seconds                                  0.188515                       # Number of seconds simulated
sim_ticks                                188515066500                       # Number of ticks simulated
final_tick                               16632916979500                       # Number of ticks from beginning of simulation (restored from checkpoints and never reset)
sim_freq                                 1000000000000                       # Frequency of simulated ticks
host_inst_rate                                  60679                       # Simulator instruction rate (inst/s)
host_op_rate                                    79782                       # Simulator op (including micro ops) rate (op/s)
host_tick_rate                              114389623                       # Simulator tick rate (ticks/s)
host_mem_usage                                2861008                       # Number of bytes of host memory used
host_seconds                                  1648.01                       # Real time elapsed on the host
sim_insts                                   100000000                       # Number of instructions simulated
sim_ops                                     131480904                       # Number of ops (including micro ops) simulated
system.physmem.bytes_read::cpu.inst               704                       # Number of bytes read from this memory
system.physmem.bytes_read::cpu.data         174414208                       # Number of bytes read from this memory
system.physmem.bytes_read::total            174414912                       # Number of bytes read from this memory
system.physmem.bytes_inst_read::cpu.inst          704                       # Number of instructions bytes read from this memory
system.physmem.bytes_inst_read::total             704                       # Number of instructions bytes read from this memory
system.physmem.bytes_written::writebacks     84106048                       # Number of bytes written to this memory
system.physmem.bytes_written::total          84106048                       # Number of bytes written to this memory
system.physmem.num_reads::cpu.inst                 11                       # Number of read requests responded to by this memory
system.physmem.num_reads::cpu.data            2725222                       # Number of read requests responded to by this memory
system.physmem.num_reads::total               2725233                       # Number of read requests responded to by this memory
system.physmem.num_writes::writebacks         1314157                       # Number of write requests responded to by this memory
system.physmem.num_writes::total              1314157                       # Number of write requests responded to by this memory
system.physmem.bw_read::cpu.inst                 3734                       # Total read bandwidth from this memory (bytes/s)
system.physmem.bw_read::cpu.data            925200363                       # Total read bandwidth from this memory (bytes/s)
system.physmem.bw_read::total               925204098                       # Total read bandwidth from this memory (bytes/s)
system.physmem.bw_inst_read::cpu.inst            3734                       # Instruction read bandwidth from this memory (bytes/s)
system.physmem.bw_inst_read::total               3734                       # Instruction read bandwidth from this memory (bytes/s)
system.physmem.bw_write::writebacks         446150271                       # Write bandwidth from this memory (bytes/s)
system.physmem.bw_write::total              446150271                       # Write bandwidth from this memory (bytes/s)
system.physmem.bw_total::writebacks         446150271                       # Total bandwidth to/from this memory (bytes/s)
system.physmem.bw_total::cpu.inst                3734                       # Total bandwidth to/from this memory (bytes/s)
system.physmem.bw_total::cpu.data           925200363                       # Total bandwidth to/from this memory (bytes/s)
system.physmem.bw_total::total             1371354369                       # Total bandwidth to/from this memory (bytes/s)
system.l2.replacements                        3060476                       # number of replacements
system.l2.tagsinuse                       1023.494925                       # Cycle average of tags in use
system.l2.total_refs                          1324640                       # Total number of references to valid blocks.
system.l2.sampled_refs                        3061500                       # Sample count of references to valid blocks.
system.l2.avg_refs                           0.432677                       # Average number of references to valid blocks.
system.l2.warmup_cycle                   16444596514000                       # Cycle when the warmup percentage was hit.
system.l2.occ_blocks::writebacks           101.451755                       # Average occupied blocks per requestor
system.l2.occ_blocks::cpu.inst               0.005911                       # Average occupied blocks per requestor
system.l2.occ_blocks::cpu.data             922.037259                       # Average occupied blocks per requestor
system.l2.occ_percent::writebacks            0.099074                       # Average percentage of cache occupancy
system.l2.occ_percent::cpu.inst              0.000006                       # Average percentage of cache occupancy
system.l2.occ_percent::cpu.data              0.900427                       # Average percentage of cache occupancy
system.l2.occ_percent::total                 0.999507                       # Average percentage of cache occupancy
system.l2.ReadReq_hits::cpu.data               186441                       # number of ReadReq hits
system.l2.ReadReq_hits::total                  186441                       # number of ReadReq hits
system.l2.Writeback_hits::writebacks          1474661                       # number of Writeback hits
system.l2.Writeback_hits::total               1474661                       # number of Writeback hits
system.l2.ReadExReq_hits::cpu.data               3945                       # number of ReadExReq hits
system.l2.ReadExReq_hits::total                  3945                       # number of ReadExReq hits
system.l2.demand_hits::cpu.data                190386                       # number of demand (read+write) hits
system.l2.demand_hits::total                   190386                       # number of demand (read+write) hits
system.l2.overall_hits::cpu.data               190386                       # number of overall hits
system.l2.overall_hits::total                  190386                       # number of overall hits
system.l2.ReadReq_misses::cpu.inst                 11                       # number of ReadReq misses
system.l2.ReadReq_misses::cpu.data            2725027                       # number of ReadReq misses
system.l2.ReadReq_misses::total               2725038                       # number of ReadReq misses
system.l2.ReadExReq_misses::cpu.data              195                       # number of ReadExReq misses
system.l2.ReadExReq_misses::total                 195                       # number of ReadExReq misses
system.l2.demand_misses::cpu.inst                  11                       # number of demand (read+write) misses
system.l2.demand_misses::cpu.data             2725222                       # number of demand (read+write) misses
system.l2.demand_misses::total                2725233                       # number of demand (read+write) misses
system.l2.overall_misses::cpu.inst                 11                       # number of overall misses
system.l2.overall_misses::cpu.data            2725222                       # number of overall misses
system.l2.overall_misses::total               2725233                       # number of overall misses
system.l2.ReadReq_miss_latency::cpu.inst       598500                       # number of ReadReq miss cycles
system.l2.ReadReq_miss_latency::cpu.data 150221422000                       # number of ReadReq miss cycles
system.l2.ReadReq_miss_latency::total    150222020500                       # number of ReadReq miss cycles
system.l2.ReadExReq_miss_latency::cpu.data     10266500                       # number of ReadExReq miss cycles
system.l2.ReadExReq_miss_latency::total      10266500                       # number of ReadExReq miss cycles
system.l2.demand_miss_latency::cpu.inst        598500                       # number of demand (read+write) miss cycles
system.l2.demand_miss_latency::cpu.data  150231688500                       # number of demand (read+write) miss cycles
system.l2.demand_miss_latency::total     150232287000                       # number of demand (read+write) miss cycles
system.l2.overall_miss_latency::cpu.inst       598500                       # number of overall miss cycles
system.l2.overall_miss_latency::cpu.data 150231688500                       # number of overall miss cycles
system.l2.overall_miss_latency::total    150232287000                       # number of overall miss cycles
system.l2.ReadReq_accesses::cpu.inst               11                       # number of ReadReq accesses(hits+misses)
system.l2.ReadReq_accesses::cpu.data          2911468                       # number of ReadReq accesses(hits+misses)
system.l2.ReadReq_accesses::total             2911479                       # number of ReadReq accesses(hits+misses)
system.l2.Writeback_accesses::writebacks      1474661                       # number of Writeback accesses(hits+misses)
system.l2.Writeback_accesses::total           1474661                       # number of Writeback accesses(hits+misses)
system.l2.ReadExReq_accesses::cpu.data           4140                       # number of ReadExReq accesses(hits+misses)
system.l2.ReadExReq_accesses::total              4140                       # number of ReadExReq accesses(hits+misses)
system.l2.demand_accesses::cpu.inst                11                       # number of demand (read+write) accesses
system.l2.demand_accesses::cpu.data           2915608                       # number of demand (read+write) accesses
system.l2.demand_accesses::total              2915619                       # number of demand (read+write) accesses
system.l2.overall_accesses::cpu.inst               11                       # number of overall (read+write) accesses
system.l2.overall_accesses::cpu.data          2915608                       # number of overall (read+write) accesses
system.l2.overall_accesses::total             2915619                       # number of overall (read+write) accesses
system.l2.ReadReq_miss_rate::cpu.inst               1                       # miss rate for ReadReq accesses
system.l2.ReadReq_miss_rate::cpu.data        0.935963                       # miss rate for ReadReq accesses
system.l2.ReadReq_miss_rate::total           0.935963                       # miss rate for ReadReq accesses
system.l2.ReadExReq_miss_rate::cpu.data      0.047101                       # miss rate for ReadExReq accesses
system.l2.ReadExReq_miss_rate::total         0.047101                       # miss rate for ReadExReq accesses
system.l2.demand_miss_rate::cpu.inst                1                       # miss rate for demand accesses
system.l2.demand_miss_rate::cpu.data         0.934701                       # miss rate for demand accesses
system.l2.demand_miss_rate::total            0.934701                       # miss rate for demand accesses
system.l2.overall_miss_rate::cpu.inst               1                       # miss rate for overall accesses
system.l2.overall_miss_rate::cpu.data        0.934701                       # miss rate for overall accesses
system.l2.overall_miss_rate::total           0.934701                       # miss rate for overall accesses
system.l2.ReadReq_avg_miss_latency::cpu.inst 54409.090909                       # average ReadReq miss latency
system.l2.ReadReq_avg_miss_latency::cpu.data 55126.581131                       # average ReadReq miss latency
system.l2.ReadReq_avg_miss_latency::total 55126.578235                       # average ReadReq miss latency
system.l2.ReadExReq_avg_miss_latency::cpu.data 52648.717949                       # average ReadExReq miss latency
system.l2.ReadExReq_avg_miss_latency::total 52648.717949                       # average ReadExReq miss latency
system.l2.demand_avg_miss_latency::cpu.inst 54409.090909                       # average overall miss latency
system.l2.demand_avg_miss_latency::cpu.data 55126.403831                       # average overall miss latency
system.l2.demand_avg_miss_latency::total 55126.400935                       # average overall miss latency
system.l2.overall_avg_miss_latency::cpu.inst 54409.090909                       # average overall miss latency
system.l2.overall_avg_miss_latency::cpu.data 55126.403831                       # average overall miss latency
system.l2.overall_avg_miss_latency::total 55126.400935                       # average overall miss latency
system.l2.blocked_cycles::no_mshrs                  0                       # number of cycles access was blocked
system.l2.blocked_cycles::no_targets                0                       # number of cycles access was blocked
system.l2.blocked::no_mshrs                         0                       # number of cycles access was blocked
system.l2.blocked::no_targets                       0                       # number of cycles access was blocked
system.l2.avg_blocked_cycles::no_mshrs            nan                       # average number of cycles each access was blocked
system.l2.avg_blocked_cycles::no_targets          nan                       # average number of cycles each access was blocked
system.l2.fast_writes                               0                       # number of fast writes performed
system.l2.cache_copies                              0                       # number of cache copies performed
system.l2.writebacks::writebacks              1314157                       # number of writebacks
system.l2.writebacks::total                   1314157                       # number of writebacks
system.l2.ReadReq_mshr_misses::cpu.inst            11                       # number of ReadReq MSHR misses
system.l2.ReadReq_mshr_misses::cpu.data       2725027                       # number of ReadReq MSHR misses
system.l2.ReadReq_mshr_misses::total          2725038                       # number of ReadReq MSHR misses
system.l2.ReadExReq_mshr_misses::cpu.data          195                       # number of ReadExReq MSHR misses
system.l2.ReadExReq_mshr_misses::total            195                       # number of ReadExReq MSHR misses
system.l2.demand_mshr_misses::cpu.inst             11                       # number of demand (read+write) MSHR misses
system.l2.demand_mshr_misses::cpu.data        2725222                       # number of demand (read+write) MSHR misses
system.l2.demand_mshr_misses::total           2725233                       # number of demand (read+write) MSHR misses
system.l2.overall_mshr_misses::cpu.inst            11                       # number of overall MSHR misses
system.l2.overall_mshr_misses::cpu.data       2725222                       # number of overall MSHR misses
system.l2.overall_mshr_misses::total          2725233                       # number of overall MSHR misses
system.l2.ReadReq_mshr_miss_latency::cpu.inst       464000                       # number of ReadReq MSHR miss cycles
system.l2.ReadReq_mshr_miss_latency::cpu.data 117101229000                       # number of ReadReq MSHR miss cycles
system.l2.ReadReq_mshr_miss_latency::total 117101693000                       # number of ReadReq MSHR miss cycles
system.l2.ReadExReq_mshr_miss_latency::cpu.data      7862500                       # number of ReadExReq MSHR miss cycles
system.l2.ReadExReq_mshr_miss_latency::total      7862500                       # number of ReadExReq MSHR miss cycles
system.l2.demand_mshr_miss_latency::cpu.inst       464000                       # number of demand (read+write) MSHR miss cycles
system.l2.demand_mshr_miss_latency::cpu.data 117109091500                       # number of demand (read+write) MSHR miss cycles
system.l2.demand_mshr_miss_latency::total 117109555500                       # number of demand (read+write) MSHR miss cycles
system.l2.overall_mshr_miss_latency::cpu.inst       464000                       # number of overall MSHR miss cycles
system.l2.overall_mshr_miss_latency::cpu.data 117109091500                       # number of overall MSHR miss cycles
system.l2.overall_mshr_miss_latency::total 117109555500                       # number of overall MSHR miss cycles
system.l2.ReadReq_mshr_miss_rate::cpu.inst            1                       # mshr miss rate for ReadReq accesses
system.l2.ReadReq_mshr_miss_rate::cpu.data     0.935963                       # mshr miss rate for ReadReq accesses
system.l2.ReadReq_mshr_miss_rate::total      0.935963                       # mshr miss rate for ReadReq accesses
system.l2.ReadExReq_mshr_miss_rate::cpu.data     0.047101                       # mshr miss rate for ReadExReq accesses
system.l2.ReadExReq_mshr_miss_rate::total     0.047101                       # mshr miss rate for ReadExReq accesses
system.l2.demand_mshr_miss_rate::cpu.inst            1                       # mshr miss rate for demand accesses
system.l2.demand_mshr_miss_rate::cpu.data     0.934701                       # mshr miss rate for demand accesses
system.l2.demand_mshr_miss_rate::total       0.934701                       # mshr miss rate for demand accesses
system.l2.overall_mshr_miss_rate::cpu.inst            1                       # mshr miss rate for overall accesses
system.l2.overall_mshr_miss_rate::cpu.data     0.934701                       # mshr miss rate for overall accesses
system.l2.overall_mshr_miss_rate::total      0.934701                       # mshr miss rate for overall accesses
system.l2.ReadReq_avg_mshr_miss_latency::cpu.inst 42181.818182                       # average ReadReq mshr miss latency
system.l2.ReadReq_avg_mshr_miss_latency::cpu.data 42972.502291                       # average ReadReq mshr miss latency
system.l2.ReadReq_avg_mshr_miss_latency::total 42972.499099                       # average ReadReq mshr miss latency
system.l2.ReadExReq_avg_mshr_miss_latency::cpu.data 40320.512821                       # average ReadExReq mshr miss latency
system.l2.ReadExReq_avg_mshr_miss_latency::total 40320.512821                       # average ReadExReq mshr miss latency
system.l2.demand_avg_mshr_miss_latency::cpu.inst 42181.818182                       # average overall mshr miss latency
system.l2.demand_avg_mshr_miss_latency::cpu.data 42972.312531                       # average overall mshr miss latency
system.l2.demand_avg_mshr_miss_latency::total 42972.309340                       # average overall mshr miss latency
system.l2.overall_avg_mshr_miss_latency::cpu.inst 42181.818182                       # average overall mshr miss latency
system.l2.overall_avg_mshr_miss_latency::cpu.data 42972.312531                       # average overall mshr miss latency
system.l2.overall_avg_mshr_miss_latency::total 42972.309340                       # average overall mshr miss latency
system.l2.no_allocate_misses                        0                       # Number of misses that were no-allocate
system.cpu.branchPred.lookups                 8667297                       # Number of BP lookups
system.cpu.branchPred.condPredicted           8667297                       # Number of conditional branches predicted
system.cpu.branchPred.condIncorrect            200118                       # Number of conditional branches incorrect
system.cpu.branchPred.BTBLookups              2964036                       # Number of BTB lookups
system.cpu.branchPred.BTBHits                 2962937                       # Number of BTB hits
system.cpu.branchPred.BTBCorrect                    0                       # Number of correct BTB predictions (this stat may not work properly.
system.cpu.branchPred.BTBHitPct             99.962922                       # BTB Hit Percentage
system.cpu.branchPred.usedRAS                       0                       # Number of times the RAS was used to get a target.
system.cpu.branchPred.RASInCorrect                  0                       # Number of incorrect RAS predictions.
system.cpu.workload.num_syscalls                    0                       # Number of system calls
system.cpu.numCycles                        377030133                       # number of cpu cycles simulated
system.cpu.numWorkItemsStarted                      0                       # number of work items this cpu started
system.cpu.numWorkItemsCompleted                    0                       # number of work items this cpu completed
system.cpu.fetch.icacheStallCycles           10056397                       # Number of cycles fetch is stalled on an Icache miss
system.cpu.fetch.Insts                      101238627                       # Number of instructions fetch has processed
system.cpu.fetch.Branches                     8667297                       # Number of branches that fetch encountered
system.cpu.fetch.predictedBranches            2962937                       # Number of branches that fetch has predicted taken
system.cpu.fetch.Cycles                      38808799                       # Number of cycles fetch has run and was not squashing or blocked
system.cpu.fetch.SquashCycles                  400405                       # Number of cycles fetch has spent squashing
system.cpu.fetch.BlockedCycles              162660535                       # Number of cycles fetch has spent blocked
system.cpu.fetch.CacheLines                  10005965                       # Number of cache lines fetched
system.cpu.fetch.IcacheSquashes                  1412                       # Number of outstanding Icache misses that were squashed
system.cpu.fetch.rateDist::samples          211726003                       # Number of instructions fetched each cycle (Total)
system.cpu.fetch.rateDist::mean              0.628848                       # Number of instructions fetched each cycle (Total)
system.cpu.fetch.rateDist::stdev             1.418513                       # Number of instructions fetched each cycle (Total)
system.cpu.fetch.rateDist::underflows               0      0.00%      0.00% # Number of instructions fetched each cycle (Total)
system.cpu.fetch.rateDist::0                172932447     81.68%     81.68% # Number of instructions fetched each cycle (Total)
system.cpu.fetch.rateDist::1                  7090649      3.35%     85.03% # Number of instructions fetched each cycle (Total)
system.cpu.fetch.rateDist::2                   365908      0.17%     85.20% # Number of instructions fetched each cycle (Total)
system.cpu.fetch.rateDist::3                    26919      0.01%     85.21% # Number of instructions fetched each cycle (Total)
system.cpu.fetch.rateDist::4                 31310080     14.79%    100.00% # Number of instructions fetched each cycle (Total)
system.cpu.fetch.rateDist::overflows                0      0.00%    100.00% # Number of instructions fetched each cycle (Total)
system.cpu.fetch.rateDist::min_value                0                       # Number of instructions fetched each cycle (Total)
system.cpu.fetch.rateDist::max_value                4                       # Number of instructions fetched each cycle (Total)
system.cpu.fetch.rateDist::total            211726003                       # Number of instructions fetched each cycle (Total)
system.cpu.fetch.branchRate                  0.022988                       # Number of branch fetches per cycle
system.cpu.fetch.rate                        0.268516                       # Number of inst fetches per cycle
system.cpu.decode.IdleCycles                 39494878                       # Number of cycles decode is idle
system.cpu.decode.BlockedCycles             133311885                       # Number of cycles decode is blocked
system.cpu.decode.RunCycles                  23463278                       # Number of cycles decode is running
system.cpu.decode.UnblockCycles              15255687                       # Number of cycles decode is unblocking
system.cpu.decode.SquashCycles                 200272                       # Number of cycles decode is squashing
system.cpu.decode.DecodedInsts              132850074                       # Number of instructions handled by decode
system.cpu.rename.SquashCycles                 200272                       # Number of cycles rename is squashing
system.cpu.rename.IdleCycles                 45275015                       # Number of cycles rename is idle
system.cpu.rename.BlockCycles                97659044                       # Number of cycles rename is blocking
system.cpu.rename.serializeStallCycles              0                       # count of cycles rename stalled for serializing inst
system.cpu.rename.RunCycles                  23060251                       # Number of cycles rename is running
system.cpu.rename.UnblockCycles              45531420                       # Number of cycles rename is unblocking
system.cpu.rename.RenamedInsts              132288765                       # Number of instructions processed by rename
system.cpu.rename.IQFullEvents               33177310                       # Number of times rename has blocked due to IQ full
system.cpu.rename.RenamedOperands           159689744                       # Number of destination operands rename has renamed
system.cpu.rename.RenameLookups             403504807                       # Number of register rename lookups that rename has made
system.cpu.rename.int_rename_lookups        403504807                       # Number of integer rename lookups
system.cpu.rename.CommittedMaps             158232972                       # Number of HB maps that are committed
system.cpu.rename.UndoneMaps                  1456770                       # Number of HB maps that are undone due to squashing
system.cpu.rename.serializingInsts                  0                       # count of serializing insts renamed
system.cpu.rename.tempSerializingInsts              0                       # count of temporary serializing insts renamed
system.cpu.rename.skidInsts                  73656800                       # count of insts added to the skid buffer
system.cpu.memDep0.insertedLoads             24205804                       # Number of loads inserted to the mem dependence unit.
system.cpu.memDep0.insertedStores            24355520                       # Number of stores inserted to the mem dependence unit.
system.cpu.memDep0.conflictingLoads                 8                       # Number of conflicting loads.
system.cpu.memDep0.conflictingStores                0                       # Number of conflicting stores.
system.cpu.iq.iqInstsAdded                  131944241                       # Number of instructions added to the IQ (excludes non-spec)
system.cpu.iq.iqInstsIssued                 131863840                       # Number of instructions issued
system.cpu.iq.iqSquashedInstsExamined          237684                       # Number of squashed instructions iterated over during squash; mainly for profiling
system.cpu.iq.iqSquashedOperandsExamined       451261                       # Number of squashed operands that are examined and possibly removed from graph
system.cpu.iq.issued_per_cycle::samples     211726003                       # Number of insts issued each cycle
system.cpu.iq.issued_per_cycle::mean         0.622804                       # Number of insts issued each cycle
system.cpu.iq.issued_per_cycle::stdev        0.840418                       # Number of insts issued each cycle
system.cpu.iq.issued_per_cycle::underflows            0      0.00%      0.00% # Number of insts issued each cycle
system.cpu.iq.issued_per_cycle::0           118931830     56.17%     56.17% # Number of insts issued each cycle
system.cpu.iq.issued_per_cycle::1            64350268     30.39%     86.57% # Number of insts issued each cycle
system.cpu.iq.issued_per_cycle::2            18024818      8.51%     95.08% # Number of insts issued each cycle
system.cpu.iq.issued_per_cycle::3            10212412      4.82%     99.90% # Number of insts issued each cycle
system.cpu.iq.issued_per_cycle::4              206675      0.10%    100.00% # Number of insts issued each cycle
system.cpu.iq.issued_per_cycle::overflows            0      0.00%    100.00% # Number of insts issued each cycle
system.cpu.iq.issued_per_cycle::min_value            0                       # Number of insts issued each cycle
system.cpu.iq.issued_per_cycle::max_value            4                       # Number of insts issued each cycle
system.cpu.iq.issued_per_cycle::total       211726003                       # Number of insts issued each cycle
system.cpu.iq.fu_full::No_OpClass                   0      0.00%      0.00% # attempts to use FU when none available
system.cpu.iq.fu_full::IntAlu                   22836    100.00%    100.00% # attempts to use FU when none available
system.cpu.iq.fu_full::IntMult                      0      0.00%    100.00% # attempts to use FU when none available
system.cpu.iq.fu_full::IntDiv                       0      0.00%    100.00% # attempts to use FU when none available
system.cpu.iq.fu_full::FloatAdd                     0      0.00%    100.00% # attempts to use FU when none available
system.cpu.iq.fu_full::FloatCmp                     0      0.00%    100.00% # attempts to use FU when none available
system.cpu.iq.fu_full::FloatCvt                     0      0.00%    100.00% # attempts to use FU when none available
system.cpu.iq.fu_full::FloatMult                    0      0.00%    100.00% # attempts to use FU when none available
system.cpu.iq.fu_full::FloatDiv                     0      0.00%    100.00% # attempts to use FU when none available
system.cpu.iq.fu_full::FloatSqrt                    0      0.00%    100.00% # attempts to use FU when none available
system.cpu.iq.fu_full::SimdAdd                      0      0.00%    100.00% # attempts to use FU when none available
system.cpu.iq.fu_full::SimdAddAcc                   0      0.00%    100.00% # attempts to use FU when none available
system.cpu.iq.fu_full::SimdAlu                      0      0.00%    100.00% # attempts to use FU when none available
system.cpu.iq.fu_full::SimdCmp                      0      0.00%    100.00% # attempts to use FU when none available
system.cpu.iq.fu_full::SimdCvt                      0      0.00%    100.00% # attempts to use FU when none available
system.cpu.iq.fu_full::SimdMisc                     0      0.00%    100.00% # attempts to use FU when none available
system.cpu.iq.fu_full::SimdMult                     0      0.00%    100.00% # attempts to use FU when none available
system.cpu.iq.fu_full::SimdMultAcc                  0      0.00%    100.00% # attempts to use FU when none available
system.cpu.iq.fu_full::SimdShift                    0      0.00%    100.00% # attempts to use FU when none available
system.cpu.iq.fu_full::SimdShiftAcc                 0      0.00%    100.00% # attempts to use FU when none available
system.cpu.iq.fu_full::SimdSqrt                     0      0.00%    100.00% # attempts to use FU when none available
system.cpu.iq.fu_full::SimdFloatAdd                 0      0.00%    100.00% # attempts to use FU when none available
system.cpu.iq.fu_full::SimdFloatAlu                 0      0.00%    100.00% # attempts to use FU when none available
system.cpu.iq.fu_full::SimdFloatCmp                 0      0.00%    100.00% # attempts to use FU when none available
system.cpu.iq.fu_full::SimdFloatCvt                 0      0.00%    100.00% # attempts to use FU when none available
system.cpu.iq.fu_full::SimdFloatDiv                 0      0.00%    100.00% # attempts to use FU when none available
system.cpu.iq.fu_full::SimdFloatMisc                0      0.00%    100.00% # attempts to use FU when none available
system.cpu.iq.fu_full::SimdFloatMult                0      0.00%    100.00% # attempts to use FU when none available
system.cpu.iq.fu_full::SimdFloatMultAcc             0      0.00%    100.00% # attempts to use FU when none available
system.cpu.iq.fu_full::SimdFloatSqrt                0      0.00%    100.00% # attempts to use FU when none available
system.cpu.iq.fu_full::MemRead                      0      0.00%    100.00% # attempts to use FU when none available
system.cpu.iq.fu_full::MemWrite                     0      0.00%    100.00% # attempts to use FU when none available
system.cpu.iq.fu_full::IprAccess                    0      0.00%    100.00% # attempts to use FU when none available
system.cpu.iq.fu_full::InstPrefetch                 0      0.00%    100.00% # attempts to use FU when none available
system.cpu.iq.FU_type_0::No_OpClass                14      0.00%      0.00% # Type of FU issued
system.cpu.iq.FU_type_0::IntAlu              83302526     63.17%     63.17% # Type of FU issued
system.cpu.iq.FU_type_0::IntMult                    0      0.00%     63.17% # Type of FU issued
system.cpu.iq.FU_type_0::IntDiv                     0      0.00%     63.17% # Type of FU issued
system.cpu.iq.FU_type_0::FloatAdd                   0      0.00%     63.17% # Type of FU issued
system.cpu.iq.FU_type_0::FloatCmp                   0      0.00%     63.17% # Type of FU issued
system.cpu.iq.FU_type_0::FloatCvt                   0      0.00%     63.17% # Type of FU issued
system.cpu.iq.FU_type_0::FloatMult                  0      0.00%     63.17% # Type of FU issued
system.cpu.iq.FU_type_0::FloatDiv                   0      0.00%     63.17% # Type of FU issued
system.cpu.iq.FU_type_0::FloatSqrt                  0      0.00%     63.17% # Type of FU issued
system.cpu.iq.FU_type_0::SimdAdd                    0      0.00%     63.17% # Type of FU issued
system.cpu.iq.FU_type_0::SimdAddAcc                 0      0.00%     63.17% # Type of FU issued
system.cpu.iq.FU_type_0::SimdAlu                    0      0.00%     63.17% # Type of FU issued
system.cpu.iq.FU_type_0::SimdCmp                    0      0.00%     63.17% # Type of FU issued
system.cpu.iq.FU_type_0::SimdCvt                    0      0.00%     63.17% # Type of FU issued
system.cpu.iq.FU_type_0::SimdMisc                   0      0.00%     63.17% # Type of FU issued
system.cpu.iq.FU_type_0::SimdMult                   0      0.00%     63.17% # Type of FU issued
system.cpu.iq.FU_type_0::SimdMultAcc                0      0.00%     63.17% # Type of FU issued
system.cpu.iq.FU_type_0::SimdShift                  0      0.00%     63.17% # Type of FU issued
system.cpu.iq.FU_type_0::SimdShiftAcc               0      0.00%     63.17% # Type of FU issued
system.cpu.iq.FU_type_0::SimdSqrt                   0      0.00%     63.17% # Type of FU issued
system.cpu.iq.FU_type_0::SimdFloatAdd               0      0.00%     63.17% # Type of FU issued
system.cpu.iq.FU_type_0::SimdFloatAlu               0      0.00%     63.17% # Type of FU issued
system.cpu.iq.FU_type_0::SimdFloatCmp               0      0.00%     63.17% # Type of FU issued
system.cpu.iq.FU_type_0::SimdFloatCvt               0      0.00%     63.17% # Type of FU issued
system.cpu.iq.FU_type_0::SimdFloatDiv               0      0.00%     63.17% # Type of FU issued
system.cpu.iq.FU_type_0::SimdFloatMisc              0      0.00%     63.17% # Type of FU issued
system.cpu.iq.FU_type_0::SimdFloatMult              0      0.00%     63.17% # Type of FU issued
system.cpu.iq.FU_type_0::SimdFloatMultAcc            0      0.00%     63.17% # Type of FU issued
system.cpu.iq.FU_type_0::SimdFloatSqrt              0      0.00%     63.17% # Type of FU issued
system.cpu.iq.FU_type_0::MemRead             24205780     18.36%     81.53% # Type of FU issued
system.cpu.iq.FU_type_0::MemWrite            24355520     18.47%    100.00% # Type of FU issued
system.cpu.iq.FU_type_0::IprAccess                  0      0.00%    100.00% # Type of FU issued
system.cpu.iq.FU_type_0::InstPrefetch               0      0.00%    100.00% # Type of FU issued
system.cpu.iq.FU_type_0::total              131863840                       # Type of FU issued
system.cpu.iq.rate                           0.349744                       # Inst issue rate
system.cpu.iq.fu_busy_cnt                       22836                       # FU busy when requested
system.cpu.iq.fu_busy_rate                   0.000173                       # FU busy rate (busy events/executed inst)
system.cpu.iq.int_inst_queue_reads          475476519                       # Number of integer instruction queue reads
system.cpu.iq.int_inst_queue_writes         132181940                       # Number of integer instruction queue writes
system.cpu.iq.int_inst_queue_wakeup_accesses    131628669                       # Number of integer instruction queue wakeup accesses
system.cpu.iq.fp_inst_queue_reads                   0                       # Number of floating instruction queue reads
system.cpu.iq.fp_inst_queue_writes                  0                       # Number of floating instruction queue writes
system.cpu.iq.fp_inst_queue_wakeup_accesses            0                       # Number of floating instruction queue wakeup accesses
system.cpu.iq.int_alu_accesses              131886662                       # Number of integer alu accesses
system.cpu.iq.fp_alu_accesses                       0                       # Number of floating point alu accesses
system.cpu.iew.lsq.thread0.forwLoads               12                       # Number of loads that had data forwarded from stores
system.cpu.iew.lsq.thread0.invAddrLoads             0                       # Number of loads ignored due to an invalid address
system.cpu.iew.lsq.thread0.squashedLoads       108017                       # Number of loads squashed
system.cpu.iew.lsq.thread0.ignoredResponses            4                       # Number of memory responses ignored because the instruction is squashed
system.cpu.iew.lsq.thread0.memOrderViolation           15                       # Number of memory ordering violations
system.cpu.iew.lsq.thread0.squashedStores          223                       # Number of stores squashed
system.cpu.iew.lsq.thread0.invAddrSwpfs             0                       # Number of software prefetches ignored due to an invalid address
system.cpu.iew.lsq.thread0.blockedLoads             0                       # Number of blocked loads due to partial load-store forwarding
system.cpu.iew.lsq.thread0.rescheduledLoads            0                       # Number of loads that were rescheduled
system.cpu.iew.lsq.thread0.cacheBlocked             0                       # Number of times an access to memory failed due to the cache being blocked
system.cpu.iew.iewIdleCycles                        0                       # Number of cycles IEW is idle
system.cpu.iew.iewSquashCycles                 200272                       # Number of cycles IEW is squashing
system.cpu.iew.iewBlockCycles                38269388                       # Number of cycles IEW is blocking
system.cpu.iew.iewUnblockCycles               2393199                       # Number of cycles IEW is unblocking
system.cpu.iew.iewDispatchedInsts           131944241                       # Number of instructions dispatched to IQ
system.cpu.iew.iewDispSquashedInsts            163388                       # Number of squashed instructions skipped by dispatch
system.cpu.iew.iewDispLoadInsts              24205804                       # Number of dispatched load instructions
system.cpu.iew.iewDispStoreInsts             24355520                       # Number of dispatched store instructions
system.cpu.iew.iewDispNonSpecInsts                  0                       # Number of dispatched non-speculative instructions
system.cpu.iew.iewIQFullEvents                 676149                       # Number of times the IQ has become full, causing a stall
system.cpu.iew.iewLSQFullEvents                     0                       # Number of times the LSQ has become full, causing a stall
system.cpu.iew.memOrderViolationEvents             15                       # Number of memory order violations
system.cpu.iew.predictedTakenIncorrect          50149                       # Number of branches that were predicted taken incorrectly
system.cpu.iew.predictedNotTakenIncorrect       149969                       # Number of branches that were predicted not taken incorrectly
system.cpu.iew.branchMispredicts               200118                       # Number of branch mispredicts detected at execute
system.cpu.iew.iewExecutedInsts             131691168                       # Number of executed instructions
system.cpu.iew.iewExecLoadInsts              24175765                       # Number of load instructions executed
system.cpu.iew.iewExecSquashedInsts            172672                       # Number of squashed instructions skipped in execute
system.cpu.iew.exec_swp                             0                       # number of swp insts executed
system.cpu.iew.exec_nop                             0                       # number of nop insts executed
system.cpu.iew.exec_refs                     48531191                       # number of memory reference insts executed
system.cpu.iew.exec_branches                  8581317                       # Number of branches executed
system.cpu.iew.exec_stores                   24355426                       # Number of stores executed
system.cpu.iew.exec_rate                     0.349286                       # Inst execution rate
system.cpu.iew.wb_sent                      131628691                       # cumulative count of insts sent to commit
system.cpu.iew.wb_count                     131628669                       # cumulative count of insts written-back
system.cpu.iew.wb_producers                  50567523                       # num instructions producing a value
system.cpu.iew.wb_consumers                  65929491                       # num instructions consuming a value
system.cpu.iew.wb_penalized                         0                       # number of instrctions required to write to 'other' IQ
system.cpu.iew.wb_rate                       0.349120                       # insts written-back per cycle
system.cpu.iew.wb_fanout                     0.766994                       # average fanout of values written-back
system.cpu.iew.wb_penalized_rate                    0                       # fraction of instructions written-back that wrote to 'other' IQ
system.cpu.commit.commitSquashedInsts          463354                       # The number of squashed insts skipped by commit
system.cpu.commit.branchMispredicts            200118                       # The number of times a branch was mispredicted
system.cpu.commit.committed_per_cycle::samples    211525731                       # Number of insts commited each cycle
system.cpu.commit.committed_per_cycle::mean     0.621583                       # Number of insts commited each cycle
system.cpu.commit.committed_per_cycle::stdev     0.827154                       # Number of insts commited each cycle
system.cpu.commit.committed_per_cycle::underflows            0      0.00%      0.00% # Number of insts commited each cycle
system.cpu.commit.committed_per_cycle::0    114586414     54.17%     54.17% # Number of insts commited each cycle
system.cpu.commit.committed_per_cycle::1     74712704     35.32%     89.49% # Number of insts commited each cycle
system.cpu.commit.committed_per_cycle::2     10538979      4.98%     94.47% # Number of insts commited each cycle
system.cpu.commit.committed_per_cycle::3     11060294      5.23%     99.70% # Number of insts commited each cycle
system.cpu.commit.committed_per_cycle::4       627340      0.30%    100.00% # Number of insts commited each cycle
system.cpu.commit.committed_per_cycle::overflows            0      0.00%    100.00% # Number of insts commited each cycle
system.cpu.commit.committed_per_cycle::min_value            0                       # Number of insts commited each cycle
system.cpu.commit.committed_per_cycle::max_value            4                       # Number of insts commited each cycle
system.cpu.commit.committed_per_cycle::total    211525731                       # Number of insts commited each cycle
system.cpu.commit.committedInsts            100000000                       # Number of instructions committed
system.cpu.commit.committedOps              131480904                       # Number of ops (including micro ops) committed
system.cpu.commit.swp_count                         0                       # Number of s/w prefetches committed
system.cpu.commit.refs                       48453082                       # Number of memory references committed
system.cpu.commit.loads                      24097786                       # Number of loads committed
system.cpu.commit.membars                           0                       # Number of memory barriers committed
system.cpu.commit.branches                    8581311                       # Number of branches committed
system.cpu.commit.fp_insts                          0                       # Number of committed floating point instructions.
system.cpu.commit.int_insts                 131480903                       # Number of committed integer instructions.
system.cpu.commit.function_calls                    0                       # Number of function calls committed.
system.cpu.commit.bw_lim_events                627340                       # number cycles where commit BW limit reached
system.cpu.commit.bw_limited                        0                       # number of insts not committed due to BW limits
system.cpu.rob.rob_reads                    342842649                       # The number of ROB reads
system.cpu.rob.rob_writes                   264088791                       # The number of ROB writes
system.cpu.timesIdled                         1947881                       # Number of times that the entire CPU went into an idle state and unscheduled itself
system.cpu.idleCycles                       165304130                       # Total number of cycles that the CPU has spent unscheduled due to idling
system.cpu.committedInsts                   100000000                       # Number of Instructions Simulated
system.cpu.committedOps                     131480904                       # Number of Ops (including micro ops) Simulated
system.cpu.committedInsts_total             100000000                       # Number of Instructions Simulated
system.cpu.cpi                               3.770301                       # CPI: Cycles Per Instruction
system.cpu.cpi_total                         3.770301                       # CPI: Total CPI of All Threads
system.cpu.ipc                               0.265231                       # IPC: Instructions Per Cycle
system.cpu.ipc_total                         0.265231                       # IPC: Total IPC of All Threads
system.cpu.int_regfile_reads                336714539                       # number of integer regfile reads
system.cpu.int_regfile_writes               158380900                       # number of integer regfile writes
system.cpu.misc_regfile_reads                65600910                       # number of misc regfile reads
system.cpu.itb_walker_cache.replacements            0                       # number of replacements
system.cpu.itb_walker_cache.tagsinuse               0                       # Cycle average of tags in use
system.cpu.itb_walker_cache.total_refs              0                       # Total number of references to valid blocks.
system.cpu.itb_walker_cache.sampled_refs            0                       # Sample count of references to valid blocks.
system.cpu.itb_walker_cache.avg_refs              nan                       # Average number of references to valid blocks.
system.cpu.itb_walker_cache.warmup_cycle            0                       # Cycle when the warmup percentage was hit.
system.cpu.itb_walker_cache.blocked_cycles::no_mshrs            0                       # number of cycles access was blocked
system.cpu.itb_walker_cache.blocked_cycles::no_targets            0                       # number of cycles access was blocked
system.cpu.itb_walker_cache.blocked::no_mshrs            0                       # number of cycles access was blocked
system.cpu.itb_walker_cache.blocked::no_targets            0                       # number of cycles access was blocked
system.cpu.itb_walker_cache.avg_blocked_cycles::no_mshrs          nan                       # average number of cycles each access was blocked
system.cpu.itb_walker_cache.avg_blocked_cycles::no_targets          nan                       # average number of cycles each access was blocked
system.cpu.itb_walker_cache.fast_writes             0                       # number of fast writes performed
system.cpu.itb_walker_cache.cache_copies            0                       # number of cache copies performed
system.cpu.itb_walker_cache.no_allocate_misses            0                       # Number of misses that were no-allocate
system.cpu.dtb_walker_cache.replacements            0                       # number of replacements
system.cpu.dtb_walker_cache.tagsinuse               0                       # Cycle average of tags in use
system.cpu.dtb_walker_cache.total_refs              0                       # Total number of references to valid blocks.
system.cpu.dtb_walker_cache.sampled_refs            0                       # Sample count of references to valid blocks.
system.cpu.dtb_walker_cache.avg_refs              nan                       # Average number of references to valid blocks.
system.cpu.dtb_walker_cache.warmup_cycle            0                       # Cycle when the warmup percentage was hit.
system.cpu.dtb_walker_cache.blocked_cycles::no_mshrs            0                       # number of cycles access was blocked
system.cpu.dtb_walker_cache.blocked_cycles::no_targets            0                       # number of cycles access was blocked
system.cpu.dtb_walker_cache.blocked::no_mshrs            0                       # number of cycles access was blocked
system.cpu.dtb_walker_cache.blocked::no_targets            0                       # number of cycles access was blocked
system.cpu.dtb_walker_cache.avg_blocked_cycles::no_mshrs          nan                       # average number of cycles each access was blocked
system.cpu.dtb_walker_cache.avg_blocked_cycles::no_targets          nan                       # average number of cycles each access was blocked
system.cpu.dtb_walker_cache.fast_writes             0                       # number of fast writes performed
system.cpu.dtb_walker_cache.cache_copies            0                       # number of cache copies performed
system.cpu.dtb_walker_cache.no_allocate_misses            0                       # Number of misses that were no-allocate
system.cpu.icache.replacements                      0                       # number of replacements
system.cpu.icache.tagsinuse                 10.947527                       # Cycle average of tags in use
system.cpu.icache.total_refs                 10005954                       # Total number of references to valid blocks.
system.cpu.icache.sampled_refs                     11                       # Sample count of references to valid blocks.
system.cpu.icache.avg_refs               909632.181818                       # Average number of references to valid blocks.
system.cpu.icache.warmup_cycle                      0                       # Cycle when the warmup percentage was hit.
system.cpu.icache.occ_blocks::cpu.inst      10.947527                       # Average occupied blocks per requestor
system.cpu.icache.occ_percent::cpu.inst      0.021382                       # Average percentage of cache occupancy
system.cpu.icache.occ_percent::total         0.021382                       # Average percentage of cache occupancy
system.cpu.icache.ReadReq_hits::cpu.inst     10005954                       # number of ReadReq hits
system.cpu.icache.ReadReq_hits::total        10005954                       # number of ReadReq hits
system.cpu.icache.demand_hits::cpu.inst      10005954                       # number of demand (read+write) hits
system.cpu.icache.demand_hits::total         10005954                       # number of demand (read+write) hits
system.cpu.icache.overall_hits::cpu.inst     10005954                       # number of overall hits
system.cpu.icache.overall_hits::total        10005954                       # number of overall hits
system.cpu.icache.ReadReq_misses::cpu.inst           11                       # number of ReadReq misses
system.cpu.icache.ReadReq_misses::total            11                       # number of ReadReq misses
system.cpu.icache.demand_misses::cpu.inst           11                       # number of demand (read+write) misses
system.cpu.icache.demand_misses::total             11                       # number of demand (read+write) misses
system.cpu.icache.overall_misses::cpu.inst           11                       # number of overall misses
system.cpu.icache.overall_misses::total            11                       # number of overall misses
system.cpu.icache.ReadReq_miss_latency::cpu.inst       631500                       # number of ReadReq miss cycles
system.cpu.icache.ReadReq_miss_latency::total       631500                       # number of ReadReq miss cycles
system.cpu.icache.demand_miss_latency::cpu.inst       631500                       # number of demand (read+write) miss cycles
system.cpu.icache.demand_miss_latency::total       631500                       # number of demand (read+write) miss cycles
system.cpu.icache.overall_miss_latency::cpu.inst       631500                       # number of overall miss cycles
system.cpu.icache.overall_miss_latency::total       631500                       # number of overall miss cycles
system.cpu.icache.ReadReq_accesses::cpu.inst     10005965                       # number of ReadReq accesses(hits+misses)
system.cpu.icache.ReadReq_accesses::total     10005965                       # number of ReadReq accesses(hits+misses)
system.cpu.icache.demand_accesses::cpu.inst     10005965                       # number of demand (read+write) accesses
system.cpu.icache.demand_accesses::total     10005965                       # number of demand (read+write) accesses
system.cpu.icache.overall_accesses::cpu.inst     10005965                       # number of overall (read+write) accesses
system.cpu.icache.overall_accesses::total     10005965                       # number of overall (read+write) accesses
system.cpu.icache.ReadReq_miss_rate::cpu.inst     0.000001                       # miss rate for ReadReq accesses
system.cpu.icache.ReadReq_miss_rate::total     0.000001                       # miss rate for ReadReq accesses
system.cpu.icache.demand_miss_rate::cpu.inst     0.000001                       # miss rate for demand accesses
system.cpu.icache.demand_miss_rate::total     0.000001                       # miss rate for demand accesses
system.cpu.icache.overall_miss_rate::cpu.inst     0.000001                       # miss rate for overall accesses
system.cpu.icache.overall_miss_rate::total     0.000001                       # miss rate for overall accesses
system.cpu.icache.ReadReq_avg_miss_latency::cpu.inst 57409.090909                       # average ReadReq miss latency
system.cpu.icache.ReadReq_avg_miss_latency::total 57409.090909                       # average ReadReq miss latency
system.cpu.icache.demand_avg_miss_latency::cpu.inst 57409.090909                       # average overall miss latency
system.cpu.icache.demand_avg_miss_latency::total 57409.090909                       # average overall miss latency
system.cpu.icache.overall_avg_miss_latency::cpu.inst 57409.090909                       # average overall miss latency
system.cpu.icache.overall_avg_miss_latency::total 57409.090909                       # average overall miss latency
system.cpu.icache.blocked_cycles::no_mshrs            0                       # number of cycles access was blocked
system.cpu.icache.blocked_cycles::no_targets            0                       # number of cycles access was blocked
system.cpu.icache.blocked::no_mshrs                 0                       # number of cycles access was blocked
system.cpu.icache.blocked::no_targets               0                       # number of cycles access was blocked
system.cpu.icache.avg_blocked_cycles::no_mshrs          nan                       # average number of cycles each access was blocked
system.cpu.icache.avg_blocked_cycles::no_targets          nan                       # average number of cycles each access was blocked
system.cpu.icache.fast_writes                       0                       # number of fast writes performed
system.cpu.icache.cache_copies                      0                       # number of cache copies performed
system.cpu.icache.ReadReq_mshr_misses::cpu.inst           11                       # number of ReadReq MSHR misses
system.cpu.icache.ReadReq_mshr_misses::total           11                       # number of ReadReq MSHR misses
system.cpu.icache.demand_mshr_misses::cpu.inst           11                       # number of demand (read+write) MSHR misses
system.cpu.icache.demand_mshr_misses::total           11                       # number of demand (read+write) MSHR misses
system.cpu.icache.overall_mshr_misses::cpu.inst           11                       # number of overall MSHR misses
system.cpu.icache.overall_mshr_misses::total           11                       # number of overall MSHR misses
system.cpu.icache.ReadReq_mshr_miss_latency::cpu.inst       609500                       # number of ReadReq MSHR miss cycles
system.cpu.icache.ReadReq_mshr_miss_latency::total       609500                       # number of ReadReq MSHR miss cycles
system.cpu.icache.demand_mshr_miss_latency::cpu.inst       609500                       # number of demand (read+write) MSHR miss cycles
system.cpu.icache.demand_mshr_miss_latency::total       609500                       # number of demand (read+write) MSHR miss cycles
system.cpu.icache.overall_mshr_miss_latency::cpu.inst       609500                       # number of overall MSHR miss cycles
system.cpu.icache.overall_mshr_miss_latency::total       609500                       # number of overall MSHR miss cycles
system.cpu.icache.ReadReq_mshr_miss_rate::cpu.inst     0.000001                       # mshr miss rate for ReadReq accesses
system.cpu.icache.ReadReq_mshr_miss_rate::total     0.000001                       # mshr miss rate for ReadReq accesses
system.cpu.icache.demand_mshr_miss_rate::cpu.inst     0.000001                       # mshr miss rate for demand accesses
system.cpu.icache.demand_mshr_miss_rate::total     0.000001                       # mshr miss rate for demand accesses
system.cpu.icache.overall_mshr_miss_rate::cpu.inst     0.000001                       # mshr miss rate for overall accesses
system.cpu.icache.overall_mshr_miss_rate::total     0.000001                       # mshr miss rate for overall accesses
system.cpu.icache.ReadReq_avg_mshr_miss_latency::cpu.inst 55409.090909                       # average ReadReq mshr miss latency
system.cpu.icache.ReadReq_avg_mshr_miss_latency::total 55409.090909                       # average ReadReq mshr miss latency
system.cpu.icache.demand_avg_mshr_miss_latency::cpu.inst 55409.090909                       # average overall mshr miss latency
system.cpu.icache.demand_avg_mshr_miss_latency::total 55409.090909                       # average overall mshr miss latency
system.cpu.icache.overall_avg_mshr_miss_latency::cpu.inst 55409.090909                       # average overall mshr miss latency
system.cpu.icache.overall_avg_mshr_miss_latency::total 55409.090909                       # average overall mshr miss latency
system.cpu.icache.no_allocate_misses                0                       # Number of misses that were no-allocate
system.cpu.dcache.replacements                2915096                       # number of replacements
system.cpu.dcache.tagsinuse                511.897048                       # Cycle average of tags in use
system.cpu.dcache.total_refs                 45263369                       # Total number of references to valid blocks.
system.cpu.dcache.sampled_refs                2915608                       # Sample count of references to valid blocks.
system.cpu.dcache.avg_refs                  15.524504                       # Average number of references to valid blocks.
system.cpu.dcache.warmup_cycle           16444590534000                       # Cycle when the warmup percentage was hit.
system.cpu.dcache.occ_blocks::cpu.data     511.897048                       # Average occupied blocks per requestor
system.cpu.dcache.occ_percent::cpu.data      0.999799                       # Average percentage of cache occupancy
system.cpu.dcache.occ_percent::total         0.999799                       # Average percentage of cache occupancy
system.cpu.dcache.ReadReq_hits::cpu.data     20912231                       # number of ReadReq hits
system.cpu.dcache.ReadReq_hits::total        20912231                       # number of ReadReq hits
system.cpu.dcache.WriteReq_hits::cpu.data     24351138                       # number of WriteReq hits
system.cpu.dcache.WriteReq_hits::total       24351138                       # number of WriteReq hits
system.cpu.dcache.demand_hits::cpu.data      45263369                       # number of demand (read+write) hits
system.cpu.dcache.demand_hits::total         45263369                       # number of demand (read+write) hits
system.cpu.dcache.overall_hits::cpu.data     45263369                       # number of overall hits
system.cpu.dcache.overall_hits::total        45263369                       # number of overall hits
system.cpu.dcache.ReadReq_misses::cpu.data      3263500                       # number of ReadReq misses
system.cpu.dcache.ReadReq_misses::total       3263500                       # number of ReadReq misses
system.cpu.dcache.WriteReq_misses::cpu.data         4155                       # number of WriteReq misses
system.cpu.dcache.WriteReq_misses::total         4155                       # number of WriteReq misses
system.cpu.dcache.demand_misses::cpu.data      3267655                       # number of demand (read+write) misses
system.cpu.dcache.demand_misses::total        3267655                       # number of demand (read+write) misses
system.cpu.dcache.overall_misses::cpu.data      3267655                       # number of overall misses
system.cpu.dcache.overall_misses::total       3267655                       # number of overall misses
system.cpu.dcache.ReadReq_miss_latency::cpu.data 177376633500                       # number of ReadReq miss cycles
system.cpu.dcache.ReadReq_miss_latency::total 177376633500                       # number of ReadReq miss cycles
system.cpu.dcache.WriteReq_miss_latency::cpu.data     62228000                       # number of WriteReq miss cycles
system.cpu.dcache.WriteReq_miss_latency::total     62228000                       # number of WriteReq miss cycles
system.cpu.dcache.demand_miss_latency::cpu.data 177438861500                       # number of demand (read+write) miss cycles
system.cpu.dcache.demand_miss_latency::total 177438861500                       # number of demand (read+write) miss cycles
system.cpu.dcache.overall_miss_latency::cpu.data 177438861500                       # number of overall miss cycles
system.cpu.dcache.overall_miss_latency::total 177438861500                       # number of overall miss cycles
system.cpu.dcache.ReadReq_accesses::cpu.data     24175731                       # number of ReadReq accesses(hits+misses)
system.cpu.dcache.ReadReq_accesses::total     24175731                       # number of ReadReq accesses(hits+misses)
system.cpu.dcache.WriteReq_accesses::cpu.data     24355293                       # number of WriteReq accesses(hits+misses)
system.cpu.dcache.WriteReq_accesses::total     24355293                       # number of WriteReq accesses(hits+misses)
system.cpu.dcache.demand_accesses::cpu.data     48531024                       # number of demand (read+write) accesses
system.cpu.dcache.demand_accesses::total     48531024                       # number of demand (read+write) accesses
system.cpu.dcache.overall_accesses::cpu.data     48531024                       # number of overall (read+write) accesses
system.cpu.dcache.overall_accesses::total     48531024                       # number of overall (read+write) accesses
system.cpu.dcache.ReadReq_miss_rate::cpu.data     0.134991                       # miss rate for ReadReq accesses
system.cpu.dcache.ReadReq_miss_rate::total     0.134991                       # miss rate for ReadReq accesses
system.cpu.dcache.WriteReq_miss_rate::cpu.data     0.000171                       # miss rate for WriteReq accesses
system.cpu.dcache.WriteReq_miss_rate::total     0.000171                       # miss rate for WriteReq accesses
system.cpu.dcache.demand_miss_rate::cpu.data     0.067331                       # miss rate for demand accesses
system.cpu.dcache.demand_miss_rate::total     0.067331                       # miss rate for demand accesses
system.cpu.dcache.overall_miss_rate::cpu.data     0.067331                       # miss rate for overall accesses
system.cpu.dcache.overall_miss_rate::total     0.067331                       # miss rate for overall accesses
system.cpu.dcache.ReadReq_avg_miss_latency::cpu.data 54351.657270                       # average ReadReq miss latency
system.cpu.dcache.ReadReq_avg_miss_latency::total 54351.657270                       # average ReadReq miss latency
system.cpu.dcache.WriteReq_avg_miss_latency::cpu.data 14976.654633                       # average WriteReq miss latency
system.cpu.dcache.WriteReq_avg_miss_latency::total 14976.654633                       # average WriteReq miss latency
system.cpu.dcache.demand_avg_miss_latency::cpu.data 54301.589825                       # average overall miss latency
system.cpu.dcache.demand_avg_miss_latency::total 54301.589825                       # average overall miss latency
system.cpu.dcache.overall_avg_miss_latency::cpu.data 54301.589825                       # average overall miss latency
system.cpu.dcache.overall_avg_miss_latency::total 54301.589825                       # average overall miss latency
system.cpu.dcache.blocked_cycles::no_mshrs          774                       # number of cycles access was blocked
system.cpu.dcache.blocked_cycles::no_targets            0                       # number of cycles access was blocked
system.cpu.dcache.blocked::no_mshrs                23                       # number of cycles access was blocked
system.cpu.dcache.blocked::no_targets               0                       # number of cycles access was blocked
system.cpu.dcache.avg_blocked_cycles::no_mshrs    33.652174                       # average number of cycles each access was blocked
system.cpu.dcache.avg_blocked_cycles::no_targets          nan                       # average number of cycles each access was blocked
system.cpu.dcache.fast_writes                       0                       # number of fast writes performed
system.cpu.dcache.cache_copies                      0                       # number of cache copies performed
system.cpu.dcache.writebacks::writebacks      1474661                       # number of writebacks
system.cpu.dcache.writebacks::total           1474661                       # number of writebacks
system.cpu.dcache.ReadReq_mshr_hits::cpu.data       352032                       # number of ReadReq MSHR hits
system.cpu.dcache.ReadReq_mshr_hits::total       352032                       # number of ReadReq MSHR hits
system.cpu.dcache.WriteReq_mshr_hits::cpu.data           15                       # number of WriteReq MSHR hits
system.cpu.dcache.WriteReq_mshr_hits::total           15                       # number of WriteReq MSHR hits
system.cpu.dcache.demand_mshr_hits::cpu.data       352047                       # number of demand (read+write) MSHR hits
system.cpu.dcache.demand_mshr_hits::total       352047                       # number of demand (read+write) MSHR hits
system.cpu.dcache.overall_mshr_hits::cpu.data       352047                       # number of overall MSHR hits
system.cpu.dcache.overall_mshr_hits::total       352047                       # number of overall MSHR hits
system.cpu.dcache.ReadReq_mshr_misses::cpu.data      2911468                       # number of ReadReq MSHR misses
system.cpu.dcache.ReadReq_mshr_misses::total      2911468                       # number of ReadReq MSHR misses
system.cpu.dcache.WriteReq_mshr_misses::cpu.data         4140                       # number of WriteReq MSHR misses
system.cpu.dcache.WriteReq_mshr_misses::total         4140                       # number of WriteReq MSHR misses
system.cpu.dcache.demand_mshr_misses::cpu.data      2915608                       # number of demand (read+write) MSHR misses
system.cpu.dcache.demand_mshr_misses::total      2915608                       # number of demand (read+write) MSHR misses
system.cpu.dcache.overall_mshr_misses::cpu.data      2915608                       # number of overall MSHR misses
system.cpu.dcache.overall_mshr_misses::total      2915608                       # number of overall MSHR misses
system.cpu.dcache.ReadReq_mshr_miss_latency::cpu.data 155409390000                       # number of ReadReq MSHR miss cycles
system.cpu.dcache.ReadReq_mshr_miss_latency::total 155409390000                       # number of ReadReq MSHR miss cycles
system.cpu.dcache.WriteReq_mshr_miss_latency::cpu.data     53856500                       # number of WriteReq MSHR miss cycles
system.cpu.dcache.WriteReq_mshr_miss_latency::total     53856500                       # number of WriteReq MSHR miss cycles
system.cpu.dcache.demand_mshr_miss_latency::cpu.data 155463246500                       # number of demand (read+write) MSHR miss cycles
system.cpu.dcache.demand_mshr_miss_latency::total 155463246500                       # number of demand (read+write) MSHR miss cycles
system.cpu.dcache.overall_mshr_miss_latency::cpu.data 155463246500                       # number of overall MSHR miss cycles
system.cpu.dcache.overall_mshr_miss_latency::total 155463246500                       # number of overall MSHR miss cycles
system.cpu.dcache.ReadReq_mshr_miss_rate::cpu.data     0.120429                       # mshr miss rate for ReadReq accesses
system.cpu.dcache.ReadReq_mshr_miss_rate::total     0.120429                       # mshr miss rate for ReadReq accesses
system.cpu.dcache.WriteReq_mshr_miss_rate::cpu.data     0.000170                       # mshr miss rate for WriteReq accesses
system.cpu.dcache.WriteReq_mshr_miss_rate::total     0.000170                       # mshr miss rate for WriteReq accesses
system.cpu.dcache.demand_mshr_miss_rate::cpu.data     0.060077                       # mshr miss rate for demand accesses
system.cpu.dcache.demand_mshr_miss_rate::total     0.060077                       # mshr miss rate for demand accesses
system.cpu.dcache.overall_mshr_miss_rate::cpu.data     0.060077                       # mshr miss rate for overall accesses
system.cpu.dcache.overall_mshr_miss_rate::total     0.060077                       # mshr miss rate for overall accesses
system.cpu.dcache.ReadReq_avg_mshr_miss_latency::cpu.data 53378.361019                       # average ReadReq mshr miss latency
system.cpu.dcache.ReadReq_avg_mshr_miss_latency::total 53378.361019                       # average ReadReq mshr miss latency
system.cpu.dcache.WriteReq_avg_mshr_miss_latency::cpu.data 13008.816425                       # average WriteReq mshr miss latency
system.cpu.dcache.WriteReq_avg_mshr_miss_latency::total 13008.816425                       # average WriteReq mshr miss latency
system.cpu.dcache.demand_avg_mshr_miss_latency::cpu.data 53321.038528                       # average overall mshr miss latency
system.cpu.dcache.demand_avg_mshr_miss_latency::total 53321.038528                       # average overall mshr miss latency
system.cpu.dcache.overall_avg_mshr_miss_latency::cpu.data 53321.038528                       # average overall mshr miss latency
system.cpu.dcache.overall_avg_mshr_miss_latency::total 53321.038528                       # average overall mshr miss latency
system.cpu.dcache.no_allocate_misses                0                       # Number of misses that were no-allocate

---------- End Simulation Statistics   ----------
