
---------- Begin Simulation Statistics ----------
sim_seconds                                  0.272812                       # Number of seconds simulated
sim_ticks                                272812400000                       # Number of ticks simulated
final_tick                               16717214313000                       # Number of ticks from beginning of simulation (restored from checkpoints and never reset)
sim_freq                                 1000000000000                       # Frequency of simulated ticks
host_inst_rate                                  43502                       # Simulator instruction rate (inst/s)
host_op_rate                                    57197                       # Simulator op (including micro ops) rate (op/s)
host_tick_rate                              118678370                       # Simulator tick rate (ticks/s)
host_mem_usage                                2861132                       # Number of bytes of host memory used
host_seconds                                  2298.75                       # Real time elapsed on the host
sim_insts                                   100000001                       # Number of instructions simulated
sim_ops                                     131480905                       # Number of ops (including micro ops) simulated
system.physmem.bytes_read::cpu.inst               640                       # Number of bytes read from this memory
system.physmem.bytes_read::cpu.data         174410304                       # Number of bytes read from this memory
system.physmem.bytes_read::total            174410944                       # Number of bytes read from this memory
system.physmem.bytes_inst_read::cpu.inst          640                       # Number of instructions bytes read from this memory
system.physmem.bytes_inst_read::total             640                       # Number of instructions bytes read from this memory
system.physmem.bytes_written::writebacks     84106112                       # Number of bytes written to this memory
system.physmem.bytes_written::total          84106112                       # Number of bytes written to this memory
system.physmem.num_reads::cpu.inst                 10                       # Number of read requests responded to by this memory
system.physmem.num_reads::cpu.data            2725161                       # Number of read requests responded to by this memory
system.physmem.num_reads::total               2725171                       # Number of read requests responded to by this memory
system.physmem.num_writes::writebacks         1314158                       # Number of write requests responded to by this memory
system.physmem.num_writes::total              1314158                       # Number of write requests responded to by this memory
system.physmem.bw_read::cpu.inst                 2346                       # Total read bandwidth from this memory (bytes/s)
system.physmem.bw_read::cpu.data            639304900                       # Total read bandwidth from this memory (bytes/s)
system.physmem.bw_read::total               639307246                       # Total read bandwidth from this memory (bytes/s)
system.physmem.bw_inst_read::cpu.inst            2346                       # Instruction read bandwidth from this memory (bytes/s)
system.physmem.bw_inst_read::total               2346                       # Instruction read bandwidth from this memory (bytes/s)
system.physmem.bw_write::writebacks         308292849                       # Write bandwidth from this memory (bytes/s)
system.physmem.bw_write::total              308292849                       # Write bandwidth from this memory (bytes/s)
system.physmem.bw_total::writebacks         308292849                       # Total bandwidth to/from this memory (bytes/s)
system.physmem.bw_total::cpu.inst                2346                       # Total bandwidth to/from this memory (bytes/s)
system.physmem.bw_total::cpu.data           639304900                       # Total bandwidth to/from this memory (bytes/s)
system.physmem.bw_total::total              947600094                       # Total bandwidth to/from this memory (bytes/s)
system.l2.replacements                        3060416                       # number of replacements
system.l2.tagsinuse                       1023.463410                       # Cycle average of tags in use
system.l2.total_refs                          1324642                       # Total number of references to valid blocks.
system.l2.sampled_refs                        3061440                       # Sample count of references to valid blocks.
system.l2.avg_refs                           0.432686                       # Average number of references to valid blocks.
system.l2.warmup_cycle                   16444711960000                       # Cycle when the warmup percentage was hit.
system.l2.occ_blocks::writebacks           100.514860                       # Average occupied blocks per requestor
system.l2.occ_blocks::cpu.inst               0.005509                       # Average occupied blocks per requestor
system.l2.occ_blocks::cpu.data             922.943041                       # Average occupied blocks per requestor
system.l2.occ_percent::writebacks            0.098159                       # Average percentage of cache occupancy
system.l2.occ_percent::cpu.inst              0.000005                       # Average percentage of cache occupancy
system.l2.occ_percent::cpu.data              0.901312                       # Average percentage of cache occupancy
system.l2.occ_percent::total                 0.999476                       # Average percentage of cache occupancy
system.l2.ReadReq_hits::cpu.data               186476                       # number of ReadReq hits
system.l2.ReadReq_hits::total                  186476                       # number of ReadReq hits
system.l2.Writeback_hits::writebacks          1474645                       # number of Writeback hits
system.l2.Writeback_hits::total               1474645                       # number of Writeback hits
system.l2.ReadExReq_hits::cpu.data               3945                       # number of ReadExReq hits
system.l2.ReadExReq_hits::total                  3945                       # number of ReadExReq hits
system.l2.demand_hits::cpu.data                190421                       # number of demand (read+write) hits
system.l2.demand_hits::total                   190421                       # number of demand (read+write) hits
system.l2.overall_hits::cpu.data               190421                       # number of overall hits
system.l2.overall_hits::total                  190421                       # number of overall hits
system.l2.ReadReq_misses::cpu.inst                 10                       # number of ReadReq misses
system.l2.ReadReq_misses::cpu.data            2724951                       # number of ReadReq misses
system.l2.ReadReq_misses::total               2724961                       # number of ReadReq misses
system.l2.ReadExReq_misses::cpu.data              210                       # number of ReadExReq misses
system.l2.ReadExReq_misses::total                 210                       # number of ReadExReq misses
system.l2.demand_misses::cpu.inst                  10                       # number of demand (read+write) misses
system.l2.demand_misses::cpu.data             2725161                       # number of demand (read+write) misses
system.l2.demand_misses::total                2725171                       # number of demand (read+write) misses
system.l2.overall_misses::cpu.inst                 10                       # number of overall misses
system.l2.overall_misses::cpu.data            2725161                       # number of overall misses
system.l2.overall_misses::total               2725171                       # number of overall misses
system.l2.ReadReq_miss_latency::cpu.inst       551000                       # number of ReadReq miss cycles
system.l2.ReadReq_miss_latency::cpu.data 148442100500                       # number of ReadReq miss cycles
system.l2.ReadReq_miss_latency::total    148442651500                       # number of ReadReq miss cycles
system.l2.ReadExReq_miss_latency::cpu.data     10974500                       # number of ReadExReq miss cycles
system.l2.ReadExReq_miss_latency::total      10974500                       # number of ReadExReq miss cycles
system.l2.demand_miss_latency::cpu.inst        551000                       # number of demand (read+write) miss cycles
system.l2.demand_miss_latency::cpu.data  148453075000                       # number of demand (read+write) miss cycles
system.l2.demand_miss_latency::total     148453626000                       # number of demand (read+write) miss cycles
system.l2.overall_miss_latency::cpu.inst       551000                       # number of overall miss cycles
system.l2.overall_miss_latency::cpu.data 148453075000                       # number of overall miss cycles
system.l2.overall_miss_latency::total    148453626000                       # number of overall miss cycles
system.l2.ReadReq_accesses::cpu.inst               10                       # number of ReadReq accesses(hits+misses)
system.l2.ReadReq_accesses::cpu.data          2911427                       # number of ReadReq accesses(hits+misses)
system.l2.ReadReq_accesses::total             2911437                       # number of ReadReq accesses(hits+misses)
system.l2.Writeback_accesses::writebacks      1474645                       # number of Writeback accesses(hits+misses)
system.l2.Writeback_accesses::total           1474645                       # number of Writeback accesses(hits+misses)
system.l2.ReadExReq_accesses::cpu.data           4155                       # number of ReadExReq accesses(hits+misses)
system.l2.ReadExReq_accesses::total              4155                       # number of ReadExReq accesses(hits+misses)
system.l2.demand_accesses::cpu.inst                10                       # number of demand (read+write) accesses
system.l2.demand_accesses::cpu.data           2915582                       # number of demand (read+write) accesses
system.l2.demand_accesses::total              2915592                       # number of demand (read+write) accesses
system.l2.overall_accesses::cpu.inst               10                       # number of overall (read+write) accesses
system.l2.overall_accesses::cpu.data          2915582                       # number of overall (read+write) accesses
system.l2.overall_accesses::total             2915592                       # number of overall (read+write) accesses
system.l2.ReadReq_miss_rate::cpu.inst               1                       # miss rate for ReadReq accesses
system.l2.ReadReq_miss_rate::cpu.data        0.935950                       # miss rate for ReadReq accesses
system.l2.ReadReq_miss_rate::total           0.935951                       # miss rate for ReadReq accesses
system.l2.ReadExReq_miss_rate::cpu.data      0.050542                       # miss rate for ReadExReq accesses
system.l2.ReadExReq_miss_rate::total         0.050542                       # miss rate for ReadExReq accesses
system.l2.demand_miss_rate::cpu.inst                1                       # miss rate for demand accesses
system.l2.demand_miss_rate::cpu.data         0.934689                       # miss rate for demand accesses
system.l2.demand_miss_rate::total            0.934689                       # miss rate for demand accesses
system.l2.overall_miss_rate::cpu.inst               1                       # miss rate for overall accesses
system.l2.overall_miss_rate::cpu.data        0.934689                       # miss rate for overall accesses
system.l2.overall_miss_rate::total           0.934689                       # miss rate for overall accesses
system.l2.ReadReq_avg_miss_latency::cpu.inst        55100                       # average ReadReq miss latency
system.l2.ReadReq_avg_miss_latency::cpu.data 54475.144874                       # average ReadReq miss latency
system.l2.ReadReq_avg_miss_latency::total 54475.147167                       # average ReadReq miss latency
system.l2.ReadExReq_avg_miss_latency::cpu.data 52259.523810                       # average ReadExReq miss latency
system.l2.ReadExReq_avg_miss_latency::total 52259.523810                       # average ReadExReq miss latency
system.l2.demand_avg_miss_latency::cpu.inst        55100                       # average overall miss latency
system.l2.demand_avg_miss_latency::cpu.data 54474.974139                       # average overall miss latency
system.l2.demand_avg_miss_latency::total 54474.976433                       # average overall miss latency
system.l2.overall_avg_miss_latency::cpu.inst        55100                       # average overall miss latency
system.l2.overall_avg_miss_latency::cpu.data 54474.974139                       # average overall miss latency
system.l2.overall_avg_miss_latency::total 54474.976433                       # average overall miss latency
system.l2.blocked_cycles::no_mshrs                  0                       # number of cycles access was blocked
system.l2.blocked_cycles::no_targets                0                       # number of cycles access was blocked
system.l2.blocked::no_mshrs                         0                       # number of cycles access was blocked
system.l2.blocked::no_targets                       0                       # number of cycles access was blocked
system.l2.avg_blocked_cycles::no_mshrs            nan                       # average number of cycles each access was blocked
system.l2.avg_blocked_cycles::no_targets          nan                       # average number of cycles each access was blocked
system.l2.fast_writes                               0                       # number of fast writes performed
system.l2.cache_copies                              0                       # number of cache copies performed
system.l2.writebacks::writebacks              1314158                       # number of writebacks
system.l2.writebacks::total                   1314158                       # number of writebacks
system.l2.ReadReq_mshr_misses::cpu.inst            10                       # number of ReadReq MSHR misses
system.l2.ReadReq_mshr_misses::cpu.data       2724951                       # number of ReadReq MSHR misses
system.l2.ReadReq_mshr_misses::total          2724961                       # number of ReadReq MSHR misses
system.l2.ReadExReq_mshr_misses::cpu.data          210                       # number of ReadExReq MSHR misses
system.l2.ReadExReq_mshr_misses::total            210                       # number of ReadExReq MSHR misses
system.l2.demand_mshr_misses::cpu.inst             10                       # number of demand (read+write) MSHR misses
system.l2.demand_mshr_misses::cpu.data        2725161                       # number of demand (read+write) MSHR misses
system.l2.demand_mshr_misses::total           2725171                       # number of demand (read+write) MSHR misses
system.l2.overall_mshr_misses::cpu.inst            10                       # number of overall MSHR misses
system.l2.overall_mshr_misses::cpu.data       2725161                       # number of overall MSHR misses
system.l2.overall_mshr_misses::total          2725171                       # number of overall MSHR misses
system.l2.ReadReq_mshr_miss_latency::cpu.inst       429000                       # number of ReadReq MSHR miss cycles
system.l2.ReadReq_mshr_miss_latency::cpu.data 114901522000                       # number of ReadReq MSHR miss cycles
system.l2.ReadReq_mshr_miss_latency::total 114901951000                       # number of ReadReq MSHR miss cycles
system.l2.ReadExReq_mshr_miss_latency::cpu.data      8410500                       # number of ReadExReq MSHR miss cycles
system.l2.ReadExReq_mshr_miss_latency::total      8410500                       # number of ReadExReq MSHR miss cycles
system.l2.demand_mshr_miss_latency::cpu.inst       429000                       # number of demand (read+write) MSHR miss cycles
system.l2.demand_mshr_miss_latency::cpu.data 114909932500                       # number of demand (read+write) MSHR miss cycles
system.l2.demand_mshr_miss_latency::total 114910361500                       # number of demand (read+write) MSHR miss cycles
system.l2.overall_mshr_miss_latency::cpu.inst       429000                       # number of overall MSHR miss cycles
system.l2.overall_mshr_miss_latency::cpu.data 114909932500                       # number of overall MSHR miss cycles
system.l2.overall_mshr_miss_latency::total 114910361500                       # number of overall MSHR miss cycles
system.l2.ReadReq_mshr_miss_rate::cpu.inst            1                       # mshr miss rate for ReadReq accesses
system.l2.ReadReq_mshr_miss_rate::cpu.data     0.935950                       # mshr miss rate for ReadReq accesses
system.l2.ReadReq_mshr_miss_rate::total      0.935951                       # mshr miss rate for ReadReq accesses
system.l2.ReadExReq_mshr_miss_rate::cpu.data     0.050542                       # mshr miss rate for ReadExReq accesses
system.l2.ReadExReq_mshr_miss_rate::total     0.050542                       # mshr miss rate for ReadExReq accesses
system.l2.demand_mshr_miss_rate::cpu.inst            1                       # mshr miss rate for demand accesses
system.l2.demand_mshr_miss_rate::cpu.data     0.934689                       # mshr miss rate for demand accesses
system.l2.demand_mshr_miss_rate::total       0.934689                       # mshr miss rate for demand accesses
system.l2.overall_mshr_miss_rate::cpu.inst            1                       # mshr miss rate for overall accesses
system.l2.overall_mshr_miss_rate::cpu.data     0.934689                       # mshr miss rate for overall accesses
system.l2.overall_mshr_miss_rate::total      0.934689                       # mshr miss rate for overall accesses
system.l2.ReadReq_avg_mshr_miss_latency::cpu.inst        42900                       # average ReadReq mshr miss latency
system.l2.ReadReq_avg_mshr_miss_latency::cpu.data 42166.454369                       # average ReadReq mshr miss latency
system.l2.ReadReq_avg_mshr_miss_latency::total 42166.457061                       # average ReadReq mshr miss latency
system.l2.ReadExReq_avg_mshr_miss_latency::cpu.data        40050                       # average ReadExReq mshr miss latency
system.l2.ReadExReq_avg_mshr_miss_latency::total        40050                       # average ReadExReq mshr miss latency
system.l2.demand_avg_mshr_miss_latency::cpu.inst        42900                       # average overall mshr miss latency
system.l2.demand_avg_mshr_miss_latency::cpu.data 42166.291276                       # average overall mshr miss latency
system.l2.demand_avg_mshr_miss_latency::total 42166.293968                       # average overall mshr miss latency
system.l2.overall_avg_mshr_miss_latency::cpu.inst        42900                       # average overall mshr miss latency
system.l2.overall_avg_mshr_miss_latency::cpu.data 42166.291276                       # average overall mshr miss latency
system.l2.overall_avg_mshr_miss_latency::total 42166.293968                       # average overall mshr miss latency
system.l2.no_allocate_misses                        0                       # Number of misses that were no-allocate
system.cpu.branchPred.lookups                 8609409                       # Number of BP lookups
system.cpu.branchPred.condPredicted           8609409                       # Number of conditional branches predicted
system.cpu.branchPred.condIncorrect            200048                       # Number of conditional branches incorrect
system.cpu.branchPred.BTBLookups              2963021                       # Number of BTB lookups
system.cpu.branchPred.BTBHits                 2961930                       # Number of BTB hits
system.cpu.branchPred.BTBCorrect                    0                       # Number of correct BTB predictions (this stat may not work properly.
system.cpu.branchPred.BTBHitPct             99.963179                       # BTB Hit Percentage
system.cpu.branchPred.usedRAS                       0                       # Number of times the RAS was used to get a target.
system.cpu.branchPred.RASInCorrect                  0                       # Number of incorrect RAS predictions.
system.cpu.workload.num_syscalls                    0                       # Number of system calls
system.cpu.numCycles                        545624800                       # number of cpu cycles simulated
system.cpu.numWorkItemsStarted                      0                       # number of work items this cpu started
system.cpu.numWorkItemsCompleted                    0                       # number of work items this cpu completed
system.cpu.fetch.icacheStallCycles           10056910                       # Number of cycles fetch is stalled on an Icache miss
system.cpu.fetch.Insts                      100532347                       # Number of instructions fetch has processed
system.cpu.fetch.Branches                     8609409                       # Number of branches that fetch encountered
system.cpu.fetch.predictedBranches            2961930                       # Number of branches that fetch has predicted taken
system.cpu.fetch.Cycles                      69671997                       # Number of cycles fetch has run and was not squashing or blocked
system.cpu.fetch.SquashCycles                  400096                       # Number of cycles fetch has spent squashing
system.cpu.fetch.BlockedCycles              267641271                       # Number of cycles fetch has spent blocked
system.cpu.fetch.CacheLines                  10005330                       # Number of cache lines fetched
system.cpu.fetch.IcacheSquashes                    22                       # Number of outstanding Icache misses that were squashed
system.cpu.fetch.rateDist::samples          347570226                       # Number of instructions fetched each cycle (Total)
system.cpu.fetch.rateDist::mean              0.380229                       # Number of instructions fetched each cycle (Total)
system.cpu.fetch.rateDist::stdev             0.771626                       # Number of instructions fetched each cycle (Total)
system.cpu.fetch.rateDist::underflows               0      0.00%      0.00% # Number of instructions fetched each cycle (Total)
system.cpu.fetch.rateDist::0                277933303     79.96%     79.96% # Number of instructions fetched each cycle (Total)
system.cpu.fetch.rateDist::1                  7117525      2.05%     82.01% # Number of instructions fetched each cycle (Total)
system.cpu.fetch.rateDist::2                 62519398     17.99%    100.00% # Number of instructions fetched each cycle (Total)
system.cpu.fetch.rateDist::overflows                0      0.00%    100.00% # Number of instructions fetched each cycle (Total)
system.cpu.fetch.rateDist::min_value                0                       # Number of instructions fetched each cycle (Total)
system.cpu.fetch.rateDist::max_value                2                       # Number of instructions fetched each cycle (Total)
system.cpu.fetch.rateDist::total            347570226                       # Number of instructions fetched each cycle (Total)
system.cpu.fetch.branchRate                  0.015779                       # Number of branch fetches per cycle
system.cpu.fetch.rate                        0.184252                       # Number of inst fetches per cycle
system.cpu.decode.IdleCycles                 50514753                       # Number of cycles decode is idle
system.cpu.decode.BlockedCycles             227289511                       # Number of cycles decode is blocked
system.cpu.decode.RunCycles                  50989455                       # Number of cycles decode is running
system.cpu.decode.UnblockCycles              18576456                       # Number of cycles decode is unblocking
system.cpu.decode.SquashCycles                 200048                       # Number of cycles decode is squashing
system.cpu.decode.DecodedInsts              132014325                       # Number of instructions handled by decode
system.cpu.rename.SquashCycles                 200048                       # Number of cycles rename is squashing
system.cpu.rename.IdleCycles                 72633742                       # Number of cycles rename is idle
system.cpu.rename.BlockCycles               192285134                       # Number of cycles rename is blocking
system.cpu.rename.serializeStallCycles              0                       # count of cycles rename stalled for serializing inst
system.cpu.rename.RunCycles                  26988965                       # Number of cycles rename is running
system.cpu.rename.UnblockCycles              55462336                       # Number of cycles rename is unblocking
system.cpu.rename.RenamedInsts              131823756                       # Number of instructions processed by rename
system.cpu.rename.IQFullEvents               28318738                       # Number of times rename has blocked due to IQ full
system.cpu.rename.RenamedOperands           158802325                       # Number of destination operands rename has renamed
system.cpu.rename.RenameLookups             402544848                       # Number of register rename lookups that rename has made
system.cpu.rename.int_rename_lookups        402544848                       # Number of integer rename lookups
system.cpu.rename.CommittedMaps             158232972                       # Number of HB maps that are committed
system.cpu.rename.UndoneMaps                   569353                       # Number of HB maps that are undone due to squashing
system.cpu.rename.serializingInsts                  0                       # count of serializing insts renamed
system.cpu.rename.tempSerializingInsts              0                       # count of temporary serializing insts renamed
system.cpu.rename.skidInsts                  85699584                       # count of insts added to the skid buffer
system.cpu.memDep0.insertedLoads             24229272                       # Number of loads inserted to the mem dependence unit.
system.cpu.memDep0.insertedStores            24355307                       # Number of stores inserted to the mem dependence unit.
system.cpu.memDep0.conflictingLoads                 0                       # Number of conflicting loads.
system.cpu.memDep0.conflictingStores                0                       # Number of conflicting stores.
system.cpu.iq.iqInstsAdded                  131667799                       # Number of instructions added to the IQ (excludes non-spec)
system.cpu.iq.iqInstsIssued                 131639283                       # Number of instructions issued
system.cpu.iq.iqSquashedInstsExamined          161140                       # Number of squashed instructions iterated over during squash; mainly for profiling
system.cpu.iq.iqSquashedOperandsExamined       471927                       # Number of squashed operands that are examined and possibly removed from graph
system.cpu.iq.issued_per_cycle::samples     347570226                       # Number of insts issued each cycle
system.cpu.iq.issued_per_cycle::mean         0.378742                       # Number of insts issued each cycle
system.cpu.iq.issued_per_cycle::stdev        0.599876                       # Number of insts issued each cycle
system.cpu.iq.issued_per_cycle::underflows            0      0.00%      0.00% # Number of insts issued each cycle
system.cpu.iq.issued_per_cycle::0           237576701     68.35%     68.35% # Number of insts issued each cycle
system.cpu.iq.issued_per_cycle::1            88347767     25.42%     93.77% # Number of insts issued each cycle
system.cpu.iq.issued_per_cycle::2            21645758      6.23%    100.00% # Number of insts issued each cycle
system.cpu.iq.issued_per_cycle::overflows            0      0.00%    100.00% # Number of insts issued each cycle
system.cpu.iq.issued_per_cycle::min_value            0                       # Number of insts issued each cycle
system.cpu.iq.issued_per_cycle::max_value            2                       # Number of insts issued each cycle
system.cpu.iq.issued_per_cycle::total       347570226                       # Number of insts issued each cycle
system.cpu.iq.fu_full::No_OpClass                   0                       # attempts to use FU when none available
system.cpu.iq.fu_full::IntAlu                       0                       # attempts to use FU when none available
system.cpu.iq.fu_full::IntMult                      0                       # attempts to use FU when none available
system.cpu.iq.fu_full::IntDiv                       0                       # attempts to use FU when none available
system.cpu.iq.fu_full::FloatAdd                     0                       # attempts to use FU when none available
system.cpu.iq.fu_full::FloatCmp                     0                       # attempts to use FU when none available
system.cpu.iq.fu_full::FloatCvt                     0                       # attempts to use FU when none available
system.cpu.iq.fu_full::FloatMult                    0                       # attempts to use FU when none available
system.cpu.iq.fu_full::FloatDiv                     0                       # attempts to use FU when none available
system.cpu.iq.fu_full::FloatSqrt                    0                       # attempts to use FU when none available
system.cpu.iq.fu_full::SimdAdd                      0                       # attempts to use FU when none available
system.cpu.iq.fu_full::SimdAddAcc                   0                       # attempts to use FU when none available
system.cpu.iq.fu_full::SimdAlu                      0                       # attempts to use FU when none available
system.cpu.iq.fu_full::SimdCmp                      0                       # attempts to use FU when none available
system.cpu.iq.fu_full::SimdCvt                      0                       # attempts to use FU when none available
system.cpu.iq.fu_full::SimdMisc                     0                       # attempts to use FU when none available
system.cpu.iq.fu_full::SimdMult                     0                       # attempts to use FU when none available
system.cpu.iq.fu_full::SimdMultAcc                  0                       # attempts to use FU when none available
system.cpu.iq.fu_full::SimdShift                    0                       # attempts to use FU when none available
system.cpu.iq.fu_full::SimdShiftAcc                 0                       # attempts to use FU when none available
system.cpu.iq.fu_full::SimdSqrt                     0                       # attempts to use FU when none available
system.cpu.iq.fu_full::SimdFloatAdd                 0                       # attempts to use FU when none available
system.cpu.iq.fu_full::SimdFloatAlu                 0                       # attempts to use FU when none available
system.cpu.iq.fu_full::SimdFloatCmp                 0                       # attempts to use FU when none available
system.cpu.iq.fu_full::SimdFloatCvt                 0                       # attempts to use FU when none available
system.cpu.iq.fu_full::SimdFloatDiv                 0                       # attempts to use FU when none available
system.cpu.iq.fu_full::SimdFloatMisc                0                       # attempts to use FU when none available
system.cpu.iq.fu_full::SimdFloatMult                0                       # attempts to use FU when none available
system.cpu.iq.fu_full::SimdFloatMultAcc             0                       # attempts to use FU when none available
system.cpu.iq.fu_full::SimdFloatSqrt                0                       # attempts to use FU when none available
system.cpu.iq.fu_full::MemRead                      0                       # attempts to use FU when none available
system.cpu.iq.fu_full::MemWrite                     0                       # attempts to use FU when none available
system.cpu.iq.fu_full::IprAccess                    0                       # attempts to use FU when none available
system.cpu.iq.fu_full::InstPrefetch                 0                       # attempts to use FU when none available
system.cpu.iq.FU_type_0::No_OpClass                 4      0.00%      0.00% # Type of FU issued
system.cpu.iq.FU_type_0::IntAlu              83054700     63.09%     63.09% # Type of FU issued
system.cpu.iq.FU_type_0::IntMult                    0      0.00%     63.09% # Type of FU issued
system.cpu.iq.FU_type_0::IntDiv                     0      0.00%     63.09% # Type of FU issued
system.cpu.iq.FU_type_0::FloatAdd                   0      0.00%     63.09% # Type of FU issued
system.cpu.iq.FU_type_0::FloatCmp                   0      0.00%     63.09% # Type of FU issued
system.cpu.iq.FU_type_0::FloatCvt                   0      0.00%     63.09% # Type of FU issued
system.cpu.iq.FU_type_0::FloatMult                  0      0.00%     63.09% # Type of FU issued
system.cpu.iq.FU_type_0::FloatDiv                   0      0.00%     63.09% # Type of FU issued
system.cpu.iq.FU_type_0::FloatSqrt                  0      0.00%     63.09% # Type of FU issued
system.cpu.iq.FU_type_0::SimdAdd                    0      0.00%     63.09% # Type of FU issued
system.cpu.iq.FU_type_0::SimdAddAcc                 0      0.00%     63.09% # Type of FU issued
system.cpu.iq.FU_type_0::SimdAlu                    0      0.00%     63.09% # Type of FU issued
system.cpu.iq.FU_type_0::SimdCmp                    0      0.00%     63.09% # Type of FU issued
system.cpu.iq.FU_type_0::SimdCvt                    0      0.00%     63.09% # Type of FU issued
system.cpu.iq.FU_type_0::SimdMisc                   0      0.00%     63.09% # Type of FU issued
system.cpu.iq.FU_type_0::SimdMult                   0      0.00%     63.09% # Type of FU issued
system.cpu.iq.FU_type_0::SimdMultAcc                0      0.00%     63.09% # Type of FU issued
system.cpu.iq.FU_type_0::SimdShift                  0      0.00%     63.09% # Type of FU issued
system.cpu.iq.FU_type_0::SimdShiftAcc               0      0.00%     63.09% # Type of FU issued
system.cpu.iq.FU_type_0::SimdSqrt                   0      0.00%     63.09% # Type of FU issued
system.cpu.iq.FU_type_0::SimdFloatAdd               0      0.00%     63.09% # Type of FU issued
system.cpu.iq.FU_type_0::SimdFloatAlu               0      0.00%     63.09% # Type of FU issued
system.cpu.iq.FU_type_0::SimdFloatCmp               0      0.00%     63.09% # Type of FU issued
system.cpu.iq.FU_type_0::SimdFloatCvt               0      0.00%     63.09% # Type of FU issued
system.cpu.iq.FU_type_0::SimdFloatDiv               0      0.00%     63.09% # Type of FU issued
system.cpu.iq.FU_type_0::SimdFloatMisc              0      0.00%     63.09% # Type of FU issued
system.cpu.iq.FU_type_0::SimdFloatMult              0      0.00%     63.09% # Type of FU issued
system.cpu.iq.FU_type_0::SimdFloatMultAcc            0      0.00%     63.09% # Type of FU issued
system.cpu.iq.FU_type_0::SimdFloatSqrt              0      0.00%     63.09% # Type of FU issued
system.cpu.iq.FU_type_0::MemRead             24229272     18.41%     81.50% # Type of FU issued
system.cpu.iq.FU_type_0::MemWrite            24355307     18.50%    100.00% # Type of FU issued
system.cpu.iq.FU_type_0::IprAccess                  0      0.00%    100.00% # Type of FU issued
system.cpu.iq.FU_type_0::InstPrefetch               0      0.00%    100.00% # Type of FU issued
system.cpu.iq.FU_type_0::total              131639283                       # Type of FU issued
system.cpu.iq.rate                           0.241263                       # Inst issue rate
system.cpu.iq.fu_busy_cnt                           0                       # FU busy when requested
system.cpu.iq.fu_busy_rate                          0                       # FU busy rate (busy events/executed inst)
system.cpu.iq.int_inst_queue_reads          610848792                       # Number of integer instruction queue reads
system.cpu.iq.int_inst_queue_writes         131828939                       # Number of integer instruction queue writes
system.cpu.iq.int_inst_queue_wakeup_accesses    131481767                       # Number of integer instruction queue wakeup accesses
system.cpu.iq.fp_inst_queue_reads                   0                       # Number of floating instruction queue reads
system.cpu.iq.fp_inst_queue_writes                  0                       # Number of floating instruction queue writes
system.cpu.iq.fp_inst_queue_wakeup_accesses            0                       # Number of floating instruction queue wakeup accesses
system.cpu.iq.int_alu_accesses              131639279                       # Number of integer alu accesses
system.cpu.iq.fp_alu_accesses                       0                       # Number of floating point alu accesses
system.cpu.iew.lsq.thread0.forwLoads                0                       # Number of loads that had data forwarded from stores
system.cpu.iew.lsq.thread0.invAddrLoads             0                       # Number of loads ignored due to an invalid address
system.cpu.iew.lsq.thread0.squashedLoads       131486                       # Number of loads squashed
system.cpu.iew.lsq.thread0.ignoredResponses            0                       # Number of memory responses ignored because the instruction is squashed
system.cpu.iew.lsq.thread0.memOrderViolation            0                       # Number of memory ordering violations
system.cpu.iew.lsq.thread0.squashedStores           10                       # Number of stores squashed
system.cpu.iew.lsq.thread0.invAddrSwpfs             0                       # Number of software prefetches ignored due to an invalid address
system.cpu.iew.lsq.thread0.blockedLoads             0                       # Number of blocked loads due to partial load-store forwarding
system.cpu.iew.lsq.thread0.rescheduledLoads            0                       # Number of loads that were rescheduled
system.cpu.iew.lsq.thread0.cacheBlocked             0                       # Number of times an access to memory failed due to the cache being blocked
system.cpu.iew.iewIdleCycles                        0                       # Number of cycles IEW is idle
system.cpu.iew.iewSquashCycles                 200048                       # Number of cycles IEW is squashing
system.cpu.iew.iewBlockCycles                57979922                       # Number of cycles IEW is blocking
system.cpu.iew.iewUnblockCycles              12602238                       # Number of cycles IEW is unblocking
system.cpu.iew.iewDispatchedInsts           131667799                       # Number of instructions dispatched to IQ
system.cpu.iew.iewDispSquashedInsts             11872                       # Number of squashed instructions skipped by dispatch
system.cpu.iew.iewDispLoadInsts              24229272                       # Number of dispatched load instructions
system.cpu.iew.iewDispStoreInsts             24355307                       # Number of dispatched store instructions
system.cpu.iew.iewDispNonSpecInsts                  0                       # Number of dispatched non-speculative instructions
system.cpu.iew.iewIQFullEvents                8888114                       # Number of times the IQ has become full, causing a stall
system.cpu.iew.iewLSQFullEvents                     0                       # Number of times the LSQ has become full, causing a stall
system.cpu.iew.memOrderViolationEvents              0                       # Number of memory order violations
system.cpu.iew.predictedTakenIncorrect          50088                       # Number of branches that were predicted taken incorrectly
system.cpu.iew.predictedNotTakenIncorrect       149960                       # Number of branches that were predicted not taken incorrectly
system.cpu.iew.branchMispredicts               200048                       # Number of branch mispredicts detected at execute
system.cpu.iew.iewExecutedInsts             131543503                       # Number of executed instructions
system.cpu.iew.iewExecLoadInsts              24159522                       # Number of load instructions executed
system.cpu.iew.iewExecSquashedInsts             95780                       # Number of squashed instructions skipped in execute
system.cpu.iew.exec_swp                             0                       # number of swp insts executed
system.cpu.iew.exec_nop                             0                       # number of nop insts executed
system.cpu.iew.exec_refs                     48514829                       # number of memory reference insts executed
system.cpu.iew.exec_branches                  8581311                       # Number of branches executed
system.cpu.iew.exec_stores                   24355307                       # Number of stores executed
system.cpu.iew.exec_rate                     0.241088                       # Inst execution rate
system.cpu.iew.wb_sent                      131481789                       # cumulative count of insts sent to commit
system.cpu.iew.wb_count                     131481767                       # cumulative count of insts written-back
system.cpu.iew.wb_producers                  41969213                       # num instructions producing a value
system.cpu.iew.wb_consumers                  46783664                       # num instructions consuming a value
system.cpu.iew.wb_penalized                         0                       # number of instrctions required to write to 'other' IQ
system.cpu.iew.wb_rate                       0.240975                       # insts written-back per cycle
system.cpu.iew.wb_fanout                     0.897091                       # average fanout of values written-back
system.cpu.iew.wb_penalized_rate                    0                       # fraction of instructions written-back that wrote to 'other' IQ
system.cpu.commit.commitSquashedInsts          186894                       # The number of squashed insts skipped by commit
system.cpu.commit.branchMispredicts            200048                       # The number of times a branch was mispredicted
system.cpu.commit.committed_per_cycle::samples    347370178                       # Number of insts commited each cycle
system.cpu.commit.committed_per_cycle::mean     0.378504                       # Number of insts commited each cycle
system.cpu.commit.committed_per_cycle::stdev     0.560251                       # Number of insts commited each cycle
system.cpu.commit.committed_per_cycle::underflows            0      0.00%      0.00% # Number of insts commited each cycle
system.cpu.commit.committed_per_cycle::0    229548271     66.08%     66.08% # Number of insts commited each cycle
system.cpu.commit.committed_per_cycle::1    104162909     29.99%     96.07% # Number of insts commited each cycle
system.cpu.commit.committed_per_cycle::2     13658998      3.93%    100.00% # Number of insts commited each cycle
system.cpu.commit.committed_per_cycle::overflows            0      0.00%    100.00% # Number of insts commited each cycle
system.cpu.commit.committed_per_cycle::min_value            0                       # Number of insts commited each cycle
system.cpu.commit.committed_per_cycle::max_value            2                       # Number of insts commited each cycle
system.cpu.commit.committed_per_cycle::total    347370178                       # Number of insts commited each cycle
system.cpu.commit.committedInsts            100000001                       # Number of instructions committed
system.cpu.commit.committedOps              131480905                       # Number of ops (including micro ops) committed
system.cpu.commit.swp_count                         0                       # Number of s/w prefetches committed
system.cpu.commit.refs                       48453083                       # Number of memory references committed
system.cpu.commit.loads                      24097786                       # Number of loads committed
system.cpu.commit.membars                           0                       # Number of memory barriers committed
system.cpu.commit.branches                    8581311                       # Number of branches committed
system.cpu.commit.fp_insts                          0                       # Number of committed floating point instructions.
system.cpu.commit.int_insts                 131480904                       # Number of committed integer instructions.
system.cpu.commit.function_calls                    0                       # Number of function calls committed.
system.cpu.commit.bw_lim_events              13658998                       # number cycles where commit BW limit reached
system.cpu.commit.bw_limited                        0                       # number of insts not committed due to BW limits
system.cpu.rob.rob_reads                    465378979                       # The number of ROB reads
system.cpu.rob.rob_writes                   263535646                       # The number of ROB writes
system.cpu.timesIdled                         2808873                       # Number of times that the entire CPU went into an idle state and unscheduled itself
system.cpu.idleCycles                       198054574                       # Total number of cycles that the CPU has spent unscheduled due to idling
system.cpu.committedInsts                   100000001                       # Number of Instructions Simulated
system.cpu.committedOps                     131480905                       # Number of Ops (including micro ops) Simulated
system.cpu.committedInsts_total             100000001                       # Number of Instructions Simulated
system.cpu.cpi                               5.456248                       # CPI: Cycles Per Instruction
system.cpu.cpi_total                         5.456248                       # CPI: Total CPI of All Threads
system.cpu.ipc                               0.183276                       # IPC: Instructions Per Cycle
system.cpu.ipc_total                         0.183276                       # IPC: Total IPC of All Threads
system.cpu.int_regfile_reads                336311225                       # number of integer regfile reads
system.cpu.int_regfile_writes               158233824                       # number of integer regfile writes
system.cpu.misc_regfile_reads                65577039                       # number of misc regfile reads
system.cpu.itb_walker_cache.replacements            0                       # number of replacements
system.cpu.itb_walker_cache.tagsinuse               0                       # Cycle average of tags in use
system.cpu.itb_walker_cache.total_refs              0                       # Total number of references to valid blocks.
system.cpu.itb_walker_cache.sampled_refs            0                       # Sample count of references to valid blocks.
system.cpu.itb_walker_cache.avg_refs              nan                       # Average number of references to valid blocks.
system.cpu.itb_walker_cache.warmup_cycle            0                       # Cycle when the warmup percentage was hit.
system.cpu.itb_walker_cache.blocked_cycles::no_mshrs            0                       # number of cycles access was blocked
system.cpu.itb_walker_cache.blocked_cycles::no_targets            0                       # number of cycles access was blocked
system.cpu.itb_walker_cache.blocked::no_mshrs            0                       # number of cycles access was blocked
system.cpu.itb_walker_cache.blocked::no_targets            0                       # number of cycles access was blocked
system.cpu.itb_walker_cache.avg_blocked_cycles::no_mshrs          nan                       # average number of cycles each access was blocked
system.cpu.itb_walker_cache.avg_blocked_cycles::no_targets          nan                       # average number of cycles each access was blocked
system.cpu.itb_walker_cache.fast_writes             0                       # number of fast writes performed
system.cpu.itb_walker_cache.cache_copies            0                       # number of cache copies performed
system.cpu.itb_walker_cache.no_allocate_misses            0                       # Number of misses that were no-allocate
system.cpu.dtb_walker_cache.replacements            0                       # number of replacements
system.cpu.dtb_walker_cache.tagsinuse               0                       # Cycle average of tags in use
system.cpu.dtb_walker_cache.total_refs              0                       # Total number of references to valid blocks.
system.cpu.dtb_walker_cache.sampled_refs            0                       # Sample count of references to valid blocks.
system.cpu.dtb_walker_cache.avg_refs              nan                       # Average number of references to valid blocks.
system.cpu.dtb_walker_cache.warmup_cycle            0                       # Cycle when the warmup percentage was hit.
system.cpu.dtb_walker_cache.blocked_cycles::no_mshrs            0                       # number of cycles access was blocked
system.cpu.dtb_walker_cache.blocked_cycles::no_targets            0                       # number of cycles access was blocked
system.cpu.dtb_walker_cache.blocked::no_mshrs            0                       # number of cycles access was blocked
system.cpu.dtb_walker_cache.blocked::no_targets            0                       # number of cycles access was blocked
system.cpu.dtb_walker_cache.avg_blocked_cycles::no_mshrs          nan                       # average number of cycles each access was blocked
system.cpu.dtb_walker_cache.avg_blocked_cycles::no_targets          nan                       # average number of cycles each access was blocked
system.cpu.dtb_walker_cache.fast_writes             0                       # number of fast writes performed
system.cpu.dtb_walker_cache.cache_copies            0                       # number of cache copies performed
system.cpu.dtb_walker_cache.no_allocate_misses            0                       # Number of misses that were no-allocate
system.cpu.icache.replacements                      0                       # number of replacements
system.cpu.icache.tagsinuse                  9.894206                       # Cycle average of tags in use
system.cpu.icache.total_refs                 10005320                       # Total number of references to valid blocks.
system.cpu.icache.sampled_refs                     10                       # Sample count of references to valid blocks.
system.cpu.icache.avg_refs                    1000532                       # Average number of references to valid blocks.
system.cpu.icache.warmup_cycle                      0                       # Cycle when the warmup percentage was hit.
system.cpu.icache.occ_blocks::cpu.inst       9.894206                       # Average occupied blocks per requestor
system.cpu.icache.occ_percent::cpu.inst      0.019325                       # Average percentage of cache occupancy
system.cpu.icache.occ_percent::total         0.019325                       # Average percentage of cache occupancy
system.cpu.icache.ReadReq_hits::cpu.inst     10005320                       # number of ReadReq hits
system.cpu.icache.ReadReq_hits::total        10005320                       # number of ReadReq hits
system.cpu.icache.demand_hits::cpu.inst      10005320                       # number of demand (read+write) hits
system.cpu.icache.demand_hits::total         10005320                       # number of demand (read+write) hits
system.cpu.icache.overall_hits::cpu.inst     10005320                       # number of overall hits
system.cpu.icache.overall_hits::total        10005320                       # number of overall hits
system.cpu.icache.ReadReq_misses::cpu.inst           10                       # number of ReadReq misses
system.cpu.icache.ReadReq_misses::total            10                       # number of ReadReq misses
system.cpu.icache.demand_misses::cpu.inst           10                       # number of demand (read+write) misses
system.cpu.icache.demand_misses::total             10                       # number of demand (read+write) misses
system.cpu.icache.overall_misses::cpu.inst           10                       # number of overall misses
system.cpu.icache.overall_misses::total            10                       # number of overall misses
system.cpu.icache.ReadReq_miss_latency::cpu.inst       581000                       # number of ReadReq miss cycles
system.cpu.icache.ReadReq_miss_latency::total       581000                       # number of ReadReq miss cycles
system.cpu.icache.demand_miss_latency::cpu.inst       581000                       # number of demand (read+write) miss cycles
system.cpu.icache.demand_miss_latency::total       581000                       # number of demand (read+write) miss cycles
system.cpu.icache.overall_miss_latency::cpu.inst       581000                       # number of overall miss cycles
system.cpu.icache.overall_miss_latency::total       581000                       # number of overall miss cycles
system.cpu.icache.ReadReq_accesses::cpu.inst     10005330                       # number of ReadReq accesses(hits+misses)
system.cpu.icache.ReadReq_accesses::total     10005330                       # number of ReadReq accesses(hits+misses)
system.cpu.icache.demand_accesses::cpu.inst     10005330                       # number of demand (read+write) accesses
system.cpu.icache.demand_accesses::total     10005330                       # number of demand (read+write) accesses
system.cpu.icache.overall_accesses::cpu.inst     10005330                       # number of overall (read+write) accesses
system.cpu.icache.overall_accesses::total     10005330                       # number of overall (read+write) accesses
system.cpu.icache.ReadReq_miss_rate::cpu.inst     0.000001                       # miss rate for ReadReq accesses
system.cpu.icache.ReadReq_miss_rate::total     0.000001                       # miss rate for ReadReq accesses
system.cpu.icache.demand_miss_rate::cpu.inst     0.000001                       # miss rate for demand accesses
system.cpu.icache.demand_miss_rate::total     0.000001                       # miss rate for demand accesses
system.cpu.icache.overall_miss_rate::cpu.inst     0.000001                       # miss rate for overall accesses
system.cpu.icache.overall_miss_rate::total     0.000001                       # miss rate for overall accesses
system.cpu.icache.ReadReq_avg_miss_latency::cpu.inst        58100                       # average ReadReq miss latency
system.cpu.icache.ReadReq_avg_miss_latency::total        58100                       # average ReadReq miss latency
system.cpu.icache.demand_avg_miss_latency::cpu.inst        58100                       # average overall miss latency
system.cpu.icache.demand_avg_miss_latency::total        58100                       # average overall miss latency
system.cpu.icache.overall_avg_miss_latency::cpu.inst        58100                       # average overall miss latency
system.cpu.icache.overall_avg_miss_latency::total        58100                       # average overall miss latency
system.cpu.icache.blocked_cycles::no_mshrs            0                       # number of cycles access was blocked
system.cpu.icache.blocked_cycles::no_targets            0                       # number of cycles access was blocked
system.cpu.icache.blocked::no_mshrs                 0                       # number of cycles access was blocked
system.cpu.icache.blocked::no_targets               0                       # number of cycles access was blocked
system.cpu.icache.avg_blocked_cycles::no_mshrs          nan                       # average number of cycles each access was blocked
system.cpu.icache.avg_blocked_cycles::no_targets          nan                       # average number of cycles each access was blocked
system.cpu.icache.fast_writes                       0                       # number of fast writes performed
system.cpu.icache.cache_copies                      0                       # number of cache copies performed
system.cpu.icache.ReadReq_mshr_misses::cpu.inst           10                       # number of ReadReq MSHR misses
system.cpu.icache.ReadReq_mshr_misses::total           10                       # number of ReadReq MSHR misses
system.cpu.icache.demand_mshr_misses::cpu.inst           10                       # number of demand (read+write) MSHR misses
system.cpu.icache.demand_mshr_misses::total           10                       # number of demand (read+write) MSHR misses
system.cpu.icache.overall_mshr_misses::cpu.inst           10                       # number of overall MSHR misses
system.cpu.icache.overall_mshr_misses::total           10                       # number of overall MSHR misses
system.cpu.icache.ReadReq_mshr_miss_latency::cpu.inst       561000                       # number of ReadReq MSHR miss cycles
system.cpu.icache.ReadReq_mshr_miss_latency::total       561000                       # number of ReadReq MSHR miss cycles
system.cpu.icache.demand_mshr_miss_latency::cpu.inst       561000                       # number of demand (read+write) MSHR miss cycles
system.cpu.icache.demand_mshr_miss_latency::total       561000                       # number of demand (read+write) MSHR miss cycles
system.cpu.icache.overall_mshr_miss_latency::cpu.inst       561000                       # number of overall MSHR miss cycles
system.cpu.icache.overall_mshr_miss_latency::total       561000                       # number of overall MSHR miss cycles
system.cpu.icache.ReadReq_mshr_miss_rate::cpu.inst     0.000001                       # mshr miss rate for ReadReq accesses
system.cpu.icache.ReadReq_mshr_miss_rate::total     0.000001                       # mshr miss rate for ReadReq accesses
system.cpu.icache.demand_mshr_miss_rate::cpu.inst     0.000001                       # mshr miss rate for demand accesses
system.cpu.icache.demand_mshr_miss_rate::total     0.000001                       # mshr miss rate for demand accesses
system.cpu.icache.overall_mshr_miss_rate::cpu.inst     0.000001                       # mshr miss rate for overall accesses
system.cpu.icache.overall_mshr_miss_rate::total     0.000001                       # mshr miss rate for overall accesses
system.cpu.icache.ReadReq_avg_mshr_miss_latency::cpu.inst        56100                       # average ReadReq mshr miss latency
system.cpu.icache.ReadReq_avg_mshr_miss_latency::total        56100                       # average ReadReq mshr miss latency
system.cpu.icache.demand_avg_mshr_miss_latency::cpu.inst        56100                       # average overall mshr miss latency
system.cpu.icache.demand_avg_mshr_miss_latency::total        56100                       # average overall mshr miss latency
system.cpu.icache.overall_avg_mshr_miss_latency::cpu.inst        56100                       # average overall mshr miss latency
system.cpu.icache.overall_avg_mshr_miss_latency::total        56100                       # average overall mshr miss latency
system.cpu.icache.no_allocate_misses                0                       # Number of misses that were no-allocate
system.cpu.dcache.replacements                2915070                       # number of replacements
system.cpu.dcache.tagsinuse                511.888533                       # Cycle average of tags in use
system.cpu.dcache.total_refs                 45599189                       # Total number of references to valid blocks.
system.cpu.dcache.sampled_refs                2915582                       # Sample count of references to valid blocks.
system.cpu.dcache.avg_refs                  15.639824                       # Average number of references to valid blocks.
system.cpu.dcache.warmup_cycle           16444701842000                       # Cycle when the warmup percentage was hit.
system.cpu.dcache.occ_blocks::cpu.data     511.888533                       # Average occupied blocks per requestor
system.cpu.dcache.occ_percent::cpu.data      0.999782                       # Average percentage of cache occupancy
system.cpu.dcache.occ_percent::total         0.999782                       # Average percentage of cache occupancy
system.cpu.dcache.ReadReq_hits::cpu.data     21248050                       # number of ReadReq hits
system.cpu.dcache.ReadReq_hits::total        21248050                       # number of ReadReq hits
system.cpu.dcache.WriteReq_hits::cpu.data     24351139                       # number of WriteReq hits
system.cpu.dcache.WriteReq_hits::total       24351139                       # number of WriteReq hits
system.cpu.dcache.demand_hits::cpu.data      45599189                       # number of demand (read+write) hits
system.cpu.dcache.demand_hits::total         45599189                       # number of demand (read+write) hits
system.cpu.dcache.overall_hits::cpu.data     45599189                       # number of overall hits
system.cpu.dcache.overall_hits::total        45599189                       # number of overall hits
system.cpu.dcache.ReadReq_misses::cpu.data      2911450                       # number of ReadReq misses
system.cpu.dcache.ReadReq_misses::total       2911450                       # number of ReadReq misses
system.cpu.dcache.WriteReq_misses::cpu.data         4155                       # number of WriteReq misses
system.cpu.dcache.WriteReq_misses::total         4155                       # number of WriteReq misses
system.cpu.dcache.demand_misses::cpu.data      2915605                       # number of demand (read+write) misses
system.cpu.dcache.demand_misses::total        2915605                       # number of demand (read+write) misses
system.cpu.dcache.overall_misses::cpu.data      2915605                       # number of overall misses
system.cpu.dcache.overall_misses::total       2915605                       # number of overall misses
system.cpu.dcache.ReadReq_miss_latency::cpu.data 159422640500                       # number of ReadReq miss cycles
system.cpu.dcache.ReadReq_miss_latency::total 159422640500                       # number of ReadReq miss cycles
system.cpu.dcache.WriteReq_miss_latency::cpu.data     62896000                       # number of WriteReq miss cycles
system.cpu.dcache.WriteReq_miss_latency::total     62896000                       # number of WriteReq miss cycles
system.cpu.dcache.demand_miss_latency::cpu.data 159485536500                       # number of demand (read+write) miss cycles
system.cpu.dcache.demand_miss_latency::total 159485536500                       # number of demand (read+write) miss cycles
system.cpu.dcache.overall_miss_latency::cpu.data 159485536500                       # number of overall miss cycles
system.cpu.dcache.overall_miss_latency::total 159485536500                       # number of overall miss cycles
system.cpu.dcache.ReadReq_accesses::cpu.data     24159500                       # number of ReadReq accesses(hits+misses)
system.cpu.dcache.ReadReq_accesses::total     24159500                       # number of ReadReq accesses(hits+misses)
system.cpu.dcache.WriteReq_accesses::cpu.data     24355294                       # number of WriteReq accesses(hits+misses)
system.cpu.dcache.WriteReq_accesses::total     24355294                       # number of WriteReq accesses(hits+misses)
system.cpu.dcache.demand_accesses::cpu.data     48514794                       # number of demand (read+write) accesses
system.cpu.dcache.demand_accesses::total     48514794                       # number of demand (read+write) accesses
system.cpu.dcache.overall_accesses::cpu.data     48514794                       # number of overall (read+write) accesses
system.cpu.dcache.overall_accesses::total     48514794                       # number of overall (read+write) accesses
system.cpu.dcache.ReadReq_miss_rate::cpu.data     0.120510                       # miss rate for ReadReq accesses
system.cpu.dcache.ReadReq_miss_rate::total     0.120510                       # miss rate for ReadReq accesses
system.cpu.dcache.WriteReq_miss_rate::cpu.data     0.000171                       # miss rate for WriteReq accesses
system.cpu.dcache.WriteReq_miss_rate::total     0.000171                       # miss rate for WriteReq accesses
system.cpu.dcache.demand_miss_rate::cpu.data     0.060097                       # miss rate for demand accesses
system.cpu.dcache.demand_miss_rate::total     0.060097                       # miss rate for demand accesses
system.cpu.dcache.overall_miss_rate::cpu.data     0.060097                       # miss rate for overall accesses
system.cpu.dcache.overall_miss_rate::total     0.060097                       # miss rate for overall accesses
system.cpu.dcache.ReadReq_avg_miss_latency::cpu.data 54757.128063                       # average ReadReq miss latency
system.cpu.dcache.ReadReq_avg_miss_latency::total 54757.128063                       # average ReadReq miss latency
system.cpu.dcache.WriteReq_avg_miss_latency::cpu.data 15137.424789                       # average WriteReq miss latency
system.cpu.dcache.WriteReq_avg_miss_latency::total 15137.424789                       # average WriteReq miss latency
system.cpu.dcache.demand_avg_miss_latency::cpu.data 54700.666414                       # average overall miss latency
system.cpu.dcache.demand_avg_miss_latency::total 54700.666414                       # average overall miss latency
system.cpu.dcache.overall_avg_miss_latency::cpu.data 54700.666414                       # average overall miss latency
system.cpu.dcache.overall_avg_miss_latency::total 54700.666414                       # average overall miss latency
system.cpu.dcache.blocked_cycles::no_mshrs            0                       # number of cycles access was blocked
system.cpu.dcache.blocked_cycles::no_targets            0                       # number of cycles access was blocked
system.cpu.dcache.blocked::no_mshrs                 0                       # number of cycles access was blocked
system.cpu.dcache.blocked::no_targets               0                       # number of cycles access was blocked
system.cpu.dcache.avg_blocked_cycles::no_mshrs          nan                       # average number of cycles each access was blocked
system.cpu.dcache.avg_blocked_cycles::no_targets          nan                       # average number of cycles each access was blocked
system.cpu.dcache.fast_writes                       0                       # number of fast writes performed
system.cpu.dcache.cache_copies                      0                       # number of cache copies performed
system.cpu.dcache.writebacks::writebacks      1474645                       # number of writebacks
system.cpu.dcache.writebacks::total           1474645                       # number of writebacks
system.cpu.dcache.ReadReq_mshr_hits::cpu.data           23                       # number of ReadReq MSHR hits
system.cpu.dcache.ReadReq_mshr_hits::total           23                       # number of ReadReq MSHR hits
system.cpu.dcache.demand_mshr_hits::cpu.data           23                       # number of demand (read+write) MSHR hits
system.cpu.dcache.demand_mshr_hits::total           23                       # number of demand (read+write) MSHR hits
system.cpu.dcache.overall_mshr_hits::cpu.data           23                       # number of overall MSHR hits
system.cpu.dcache.overall_mshr_hits::total           23                       # number of overall MSHR hits
system.cpu.dcache.ReadReq_mshr_misses::cpu.data      2911427                       # number of ReadReq MSHR misses
system.cpu.dcache.ReadReq_mshr_misses::total      2911427                       # number of ReadReq MSHR misses
system.cpu.dcache.WriteReq_mshr_misses::cpu.data         4155                       # number of WriteReq MSHR misses
system.cpu.dcache.WriteReq_mshr_misses::total         4155                       # number of WriteReq MSHR misses
system.cpu.dcache.demand_mshr_misses::cpu.data      2915582                       # number of demand (read+write) MSHR misses
system.cpu.dcache.demand_mshr_misses::total      2915582                       # number of demand (read+write) MSHR misses
system.cpu.dcache.overall_mshr_misses::cpu.data      2915582                       # number of overall MSHR misses
system.cpu.dcache.overall_mshr_misses::total      2915582                       # number of overall MSHR misses
system.cpu.dcache.ReadReq_mshr_miss_latency::cpu.data 153598747500                       # number of ReadReq MSHR miss cycles
system.cpu.dcache.ReadReq_mshr_miss_latency::total 153598747500                       # number of ReadReq MSHR miss cycles
system.cpu.dcache.WriteReq_mshr_miss_latency::cpu.data     54586000                       # number of WriteReq MSHR miss cycles
system.cpu.dcache.WriteReq_mshr_miss_latency::total     54586000                       # number of WriteReq MSHR miss cycles
system.cpu.dcache.demand_mshr_miss_latency::cpu.data 153653333500                       # number of demand (read+write) MSHR miss cycles
system.cpu.dcache.demand_mshr_miss_latency::total 153653333500                       # number of demand (read+write) MSHR miss cycles
system.cpu.dcache.overall_mshr_miss_latency::cpu.data 153653333500                       # number of overall MSHR miss cycles
system.cpu.dcache.overall_mshr_miss_latency::total 153653333500                       # number of overall MSHR miss cycles
system.cpu.dcache.ReadReq_mshr_miss_rate::cpu.data     0.120509                       # mshr miss rate for ReadReq accesses
system.cpu.dcache.ReadReq_mshr_miss_rate::total     0.120509                       # mshr miss rate for ReadReq accesses
system.cpu.dcache.WriteReq_mshr_miss_rate::cpu.data     0.000171                       # mshr miss rate for WriteReq accesses
system.cpu.dcache.WriteReq_mshr_miss_rate::total     0.000171                       # mshr miss rate for WriteReq accesses
system.cpu.dcache.demand_mshr_miss_rate::cpu.data     0.060097                       # mshr miss rate for demand accesses
system.cpu.dcache.demand_mshr_miss_rate::total     0.060097                       # mshr miss rate for demand accesses
system.cpu.dcache.overall_mshr_miss_rate::cpu.data     0.060097                       # mshr miss rate for overall accesses
system.cpu.dcache.overall_mshr_miss_rate::total     0.060097                       # mshr miss rate for overall accesses
system.cpu.dcache.ReadReq_avg_mshr_miss_latency::cpu.data 52757.203770                       # average ReadReq mshr miss latency
system.cpu.dcache.ReadReq_avg_mshr_miss_latency::total 52757.203770                       # average ReadReq mshr miss latency
system.cpu.dcache.WriteReq_avg_mshr_miss_latency::cpu.data 13137.424789                       # average WriteReq mshr miss latency
system.cpu.dcache.WriteReq_avg_mshr_miss_latency::total 13137.424789                       # average WriteReq mshr miss latency
system.cpu.dcache.demand_avg_mshr_miss_latency::cpu.data 52700.741567                       # average overall mshr miss latency
system.cpu.dcache.demand_avg_mshr_miss_latency::total 52700.741567                       # average overall mshr miss latency
system.cpu.dcache.overall_avg_mshr_miss_latency::cpu.data 52700.741567                       # average overall mshr miss latency
system.cpu.dcache.overall_avg_mshr_miss_latency::total 52700.741567                       # average overall mshr miss latency
system.cpu.dcache.no_allocate_misses                0                       # Number of misses that were no-allocate

---------- End Simulation Statistics   ----------
