
---------- Begin Simulation Statistics ----------
sim_seconds                                  0.126204                       # Number of seconds simulated
sim_ticks                                126203780500                       # Number of ticks simulated
final_tick                               16570605693500                       # Number of ticks from beginning of simulation (restored from checkpoints and never reset)
sim_freq                                 1000000000000                       # Frequency of simulated ticks
host_inst_rate                                  71469                       # Simulator instruction rate (inst/s)
host_op_rate                                    93968                       # Simulator op (including micro ops) rate (op/s)
host_tick_rate                               90196227                       # Simulator tick rate (ticks/s)
host_mem_usage                                2861012                       # Number of bytes of host memory used
host_seconds                                  1399.21                       # Real time elapsed on the host
sim_insts                                   100000003                       # Number of instructions simulated
sim_ops                                     131480907                       # Number of ops (including micro ops) simulated
system.physmem.bytes_read::cpu.inst               960                       # Number of bytes read from this memory
system.physmem.bytes_read::cpu.data         174459648                       # Number of bytes read from this memory
system.physmem.bytes_read::total            174460608                       # Number of bytes read from this memory
system.physmem.bytes_inst_read::cpu.inst          960                       # Number of instructions bytes read from this memory
system.physmem.bytes_inst_read::total             960                       # Number of instructions bytes read from this memory
system.physmem.bytes_written::writebacks     84107200                       # Number of bytes written to this memory
system.physmem.bytes_written::total          84107200                       # Number of bytes written to this memory
system.physmem.num_reads::cpu.inst                 15                       # Number of read requests responded to by this memory
system.physmem.num_reads::cpu.data            2725932                       # Number of read requests responded to by this memory
system.physmem.num_reads::total               2725947                       # Number of read requests responded to by this memory
system.physmem.num_writes::writebacks         1314175                       # Number of write requests responded to by this memory
system.physmem.num_writes::total              1314175                       # Number of write requests responded to by this memory
system.physmem.bw_read::cpu.inst                 7607                       # Total read bandwidth from this memory (bytes/s)
system.physmem.bw_read::cpu.data           1382364675                       # Total read bandwidth from this memory (bytes/s)
system.physmem.bw_read::total              1382372282                       # Total read bandwidth from this memory (bytes/s)
system.physmem.bw_inst_read::cpu.inst            7607                       # Instruction read bandwidth from this memory (bytes/s)
system.physmem.bw_inst_read::total               7607                       # Instruction read bandwidth from this memory (bytes/s)
system.physmem.bw_write::writebacks         666439624                       # Write bandwidth from this memory (bytes/s)
system.physmem.bw_write::total              666439624                       # Write bandwidth from this memory (bytes/s)
system.physmem.bw_total::writebacks         666439624                       # Total bandwidth to/from this memory (bytes/s)
system.physmem.bw_total::cpu.inst                7607                       # Total bandwidth to/from this memory (bytes/s)
system.physmem.bw_total::cpu.data          1382364675                       # Total bandwidth to/from this memory (bytes/s)
system.physmem.bw_total::total             2048811905                       # Total bandwidth to/from this memory (bytes/s)
system.l2.replacements                        3060710                       # number of replacements
system.l2.tagsinuse                       1023.550986                       # Cycle average of tags in use
system.l2.total_refs                          1326184                       # Total number of references to valid blocks.
system.l2.sampled_refs                        3061734                       # Sample count of references to valid blocks.
system.l2.avg_refs                           0.433148                       # Average number of references to valid blocks.
system.l2.warmup_cycle                   16444511001000                       # Cycle when the warmup percentage was hit.
system.l2.occ_blocks::writebacks           103.947273                       # Average occupied blocks per requestor
system.l2.occ_blocks::cpu.inst               0.006814                       # Average occupied blocks per requestor
system.l2.occ_blocks::cpu.data             919.596900                       # Average occupied blocks per requestor
system.l2.occ_percent::writebacks            0.101511                       # Average percentage of cache occupancy
system.l2.occ_percent::cpu.inst              0.000007                       # Average percentage of cache occupancy
system.l2.occ_percent::cpu.data              0.898044                       # Average percentage of cache occupancy
system.l2.occ_percent::total                 0.999562                       # Average percentage of cache occupancy
system.l2.ReadReq_hits::cpu.data               187406                       # number of ReadReq hits
system.l2.ReadReq_hits::total                  187406                       # number of ReadReq hits
system.l2.Writeback_hits::writebacks          1474761                       # number of Writeback hits
system.l2.Writeback_hits::total               1474761                       # number of Writeback hits
system.l2.ReadExReq_hits::cpu.data               3941                       # number of ReadExReq hits
system.l2.ReadExReq_hits::total                  3941                       # number of ReadExReq hits
system.l2.demand_hits::cpu.data                191347                       # number of demand (read+write) hits
system.l2.demand_hits::total                   191347                       # number of demand (read+write) hits
system.l2.overall_hits::cpu.data               191347                       # number of overall hits
system.l2.overall_hits::total                  191347                       # number of overall hits
system.l2.ReadReq_misses::cpu.inst                 15                       # number of ReadReq misses
system.l2.ReadReq_misses::cpu.data            2725737                       # number of ReadReq misses
system.l2.ReadReq_misses::total               2725752                       # number of ReadReq misses
system.l2.ReadExReq_misses::cpu.data              196                       # number of ReadExReq misses
system.l2.ReadExReq_misses::total                 196                       # number of ReadExReq misses
system.l2.demand_misses::cpu.inst                  15                       # number of demand (read+write) misses
system.l2.demand_misses::cpu.data             2725933                       # number of demand (read+write) misses
system.l2.demand_misses::total                2725948                       # number of demand (read+write) misses
system.l2.overall_misses::cpu.inst                 15                       # number of overall misses
system.l2.overall_misses::cpu.data            2725933                       # number of overall misses
system.l2.overall_misses::total               2725948                       # number of overall misses
system.l2.ReadReq_miss_latency::cpu.inst       863000                       # number of ReadReq miss cycles
system.l2.ReadReq_miss_latency::cpu.data 153398775500                       # number of ReadReq miss cycles
system.l2.ReadReq_miss_latency::total    153399638500                       # number of ReadReq miss cycles
system.l2.ReadExReq_miss_latency::cpu.data     11272000                       # number of ReadExReq miss cycles
system.l2.ReadExReq_miss_latency::total      11272000                       # number of ReadExReq miss cycles
system.l2.demand_miss_latency::cpu.inst        863000                       # number of demand (read+write) miss cycles
system.l2.demand_miss_latency::cpu.data  153410047500                       # number of demand (read+write) miss cycles
system.l2.demand_miss_latency::total     153410910500                       # number of demand (read+write) miss cycles
system.l2.overall_miss_latency::cpu.inst       863000                       # number of overall miss cycles
system.l2.overall_miss_latency::cpu.data 153410047500                       # number of overall miss cycles
system.l2.overall_miss_latency::total    153410910500                       # number of overall miss cycles
system.l2.ReadReq_accesses::cpu.inst               15                       # number of ReadReq accesses(hits+misses)
system.l2.ReadReq_accesses::cpu.data          2913143                       # number of ReadReq accesses(hits+misses)
system.l2.ReadReq_accesses::total             2913158                       # number of ReadReq accesses(hits+misses)
system.l2.Writeback_accesses::writebacks      1474761                       # number of Writeback accesses(hits+misses)
system.l2.Writeback_accesses::total           1474761                       # number of Writeback accesses(hits+misses)
system.l2.ReadExReq_accesses::cpu.data           4137                       # number of ReadExReq accesses(hits+misses)
system.l2.ReadExReq_accesses::total              4137                       # number of ReadExReq accesses(hits+misses)
system.l2.demand_accesses::cpu.inst                15                       # number of demand (read+write) accesses
system.l2.demand_accesses::cpu.data           2917280                       # number of demand (read+write) accesses
system.l2.demand_accesses::total              2917295                       # number of demand (read+write) accesses
system.l2.overall_accesses::cpu.inst               15                       # number of overall (read+write) accesses
system.l2.overall_accesses::cpu.data          2917280                       # number of overall (read+write) accesses
system.l2.overall_accesses::total             2917295                       # number of overall (read+write) accesses
system.l2.ReadReq_miss_rate::cpu.inst               1                       # miss rate for ReadReq accesses
system.l2.ReadReq_miss_rate::cpu.data        0.935669                       # miss rate for ReadReq accesses
system.l2.ReadReq_miss_rate::total           0.935669                       # miss rate for ReadReq accesses
system.l2.ReadExReq_miss_rate::cpu.data      0.047377                       # miss rate for ReadExReq accesses
system.l2.ReadExReq_miss_rate::total         0.047377                       # miss rate for ReadExReq accesses
system.l2.demand_miss_rate::cpu.inst                1                       # miss rate for demand accesses
system.l2.demand_miss_rate::cpu.data         0.934409                       # miss rate for demand accesses
system.l2.demand_miss_rate::total            0.934409                       # miss rate for demand accesses
system.l2.overall_miss_rate::cpu.inst               1                       # miss rate for overall accesses
system.l2.overall_miss_rate::cpu.data        0.934409                       # miss rate for overall accesses
system.l2.overall_miss_rate::total           0.934409                       # miss rate for overall accesses
system.l2.ReadReq_avg_miss_latency::cpu.inst 57533.333333                       # average ReadReq miss latency
system.l2.ReadReq_avg_miss_latency::cpu.data 56277.907773                       # average ReadReq miss latency
system.l2.ReadReq_avg_miss_latency::total 56277.914682                       # average ReadReq miss latency
system.l2.ReadExReq_avg_miss_latency::cpu.data 57510.204082                       # average ReadExReq miss latency
system.l2.ReadExReq_avg_miss_latency::total 57510.204082                       # average ReadExReq miss latency
system.l2.demand_avg_miss_latency::cpu.inst 57533.333333                       # average overall miss latency
system.l2.demand_avg_miss_latency::cpu.data 56277.996378                       # average overall miss latency
system.l2.demand_avg_miss_latency::total 56278.003285                       # average overall miss latency
system.l2.overall_avg_miss_latency::cpu.inst 57533.333333                       # average overall miss latency
system.l2.overall_avg_miss_latency::cpu.data 56277.996378                       # average overall miss latency
system.l2.overall_avg_miss_latency::total 56278.003285                       # average overall miss latency
system.l2.blocked_cycles::no_mshrs                  0                       # number of cycles access was blocked
system.l2.blocked_cycles::no_targets                0                       # number of cycles access was blocked
system.l2.blocked::no_mshrs                         0                       # number of cycles access was blocked
system.l2.blocked::no_targets                       0                       # number of cycles access was blocked
system.l2.avg_blocked_cycles::no_mshrs            nan                       # average number of cycles each access was blocked
system.l2.avg_blocked_cycles::no_targets          nan                       # average number of cycles each access was blocked
system.l2.fast_writes                               0                       # number of fast writes performed
system.l2.cache_copies                              0                       # number of cache copies performed
system.l2.writebacks::writebacks              1314175                       # number of writebacks
system.l2.writebacks::total                   1314175                       # number of writebacks
system.l2.ReadReq_mshr_misses::cpu.inst            15                       # number of ReadReq MSHR misses
system.l2.ReadReq_mshr_misses::cpu.data       2725737                       # number of ReadReq MSHR misses
system.l2.ReadReq_mshr_misses::total          2725752                       # number of ReadReq MSHR misses
system.l2.ReadExReq_mshr_misses::cpu.data          196                       # number of ReadExReq MSHR misses
system.l2.ReadExReq_mshr_misses::total            196                       # number of ReadExReq MSHR misses
system.l2.demand_mshr_misses::cpu.inst             15                       # number of demand (read+write) MSHR misses
system.l2.demand_mshr_misses::cpu.data        2725933                       # number of demand (read+write) MSHR misses
system.l2.demand_mshr_misses::total           2725948                       # number of demand (read+write) MSHR misses
system.l2.overall_mshr_misses::cpu.inst            15                       # number of overall MSHR misses
system.l2.overall_mshr_misses::cpu.data       2725933                       # number of overall MSHR misses
system.l2.overall_mshr_misses::total          2725948                       # number of overall MSHR misses
system.l2.ReadReq_mshr_miss_latency::cpu.inst       681500                       # number of ReadReq MSHR miss cycles
system.l2.ReadReq_mshr_miss_latency::cpu.data 120184512500                       # number of ReadReq MSHR miss cycles
system.l2.ReadReq_mshr_miss_latency::total 120185194000                       # number of ReadReq MSHR miss cycles
system.l2.ReadExReq_mshr_miss_latency::cpu.data      8887500                       # number of ReadExReq MSHR miss cycles
system.l2.ReadExReq_mshr_miss_latency::total      8887500                       # number of ReadExReq MSHR miss cycles
system.l2.demand_mshr_miss_latency::cpu.inst       681500                       # number of demand (read+write) MSHR miss cycles
system.l2.demand_mshr_miss_latency::cpu.data 120193400000                       # number of demand (read+write) MSHR miss cycles
system.l2.demand_mshr_miss_latency::total 120194081500                       # number of demand (read+write) MSHR miss cycles
system.l2.overall_mshr_miss_latency::cpu.inst       681500                       # number of overall MSHR miss cycles
system.l2.overall_mshr_miss_latency::cpu.data 120193400000                       # number of overall MSHR miss cycles
system.l2.overall_mshr_miss_latency::total 120194081500                       # number of overall MSHR miss cycles
system.l2.ReadReq_mshr_miss_rate::cpu.inst            1                       # mshr miss rate for ReadReq accesses
system.l2.ReadReq_mshr_miss_rate::cpu.data     0.935669                       # mshr miss rate for ReadReq accesses
system.l2.ReadReq_mshr_miss_rate::total      0.935669                       # mshr miss rate for ReadReq accesses
system.l2.ReadExReq_mshr_miss_rate::cpu.data     0.047377                       # mshr miss rate for ReadExReq accesses
system.l2.ReadExReq_mshr_miss_rate::total     0.047377                       # mshr miss rate for ReadExReq accesses
system.l2.demand_mshr_miss_rate::cpu.inst            1                       # mshr miss rate for demand accesses
system.l2.demand_mshr_miss_rate::cpu.data     0.934409                       # mshr miss rate for demand accesses
system.l2.demand_mshr_miss_rate::total       0.934409                       # mshr miss rate for demand accesses
system.l2.overall_mshr_miss_rate::cpu.inst            1                       # mshr miss rate for overall accesses
system.l2.overall_mshr_miss_rate::cpu.data     0.934409                       # mshr miss rate for overall accesses
system.l2.overall_mshr_miss_rate::total      0.934409                       # mshr miss rate for overall accesses
system.l2.ReadReq_avg_mshr_miss_latency::cpu.inst 45433.333333                       # average ReadReq mshr miss latency
system.l2.ReadReq_avg_mshr_miss_latency::cpu.data 44092.483061                       # average ReadReq mshr miss latency
system.l2.ReadReq_avg_mshr_miss_latency::total 44092.490439                       # average ReadReq mshr miss latency
system.l2.ReadExReq_avg_mshr_miss_latency::cpu.data 45344.387755                       # average ReadExReq mshr miss latency
system.l2.ReadExReq_avg_mshr_miss_latency::total 45344.387755                       # average ReadExReq mshr miss latency
system.l2.demand_avg_mshr_miss_latency::cpu.inst 45433.333333                       # average overall mshr miss latency
system.l2.demand_avg_mshr_miss_latency::cpu.data 44092.573075                       # average overall mshr miss latency
system.l2.demand_avg_mshr_miss_latency::total 44092.580453                       # average overall mshr miss latency
system.l2.overall_avg_mshr_miss_latency::cpu.inst 45433.333333                       # average overall mshr miss latency
system.l2.overall_avg_mshr_miss_latency::cpu.data 44092.573075                       # average overall mshr miss latency
system.l2.overall_avg_mshr_miss_latency::total 44092.580453                       # average overall mshr miss latency
system.l2.no_allocate_misses                        0                       # Number of misses that were no-allocate
system.cpu.branchPred.lookups                10144722                       # Number of BP lookups
system.cpu.branchPred.condPredicted          10144722                       # Number of conditional branches predicted
system.cpu.branchPred.condIncorrect            201474                       # Number of conditional branches incorrect
system.cpu.branchPred.BTBLookups              3537590                       # Number of BTB lookups
system.cpu.branchPred.BTBHits                 3510207                       # Number of BTB hits
system.cpu.branchPred.BTBCorrect                    0                       # Number of correct BTB predictions (this stat may not work properly.
system.cpu.branchPred.BTBHitPct             99.225942                       # BTB Hit Percentage
system.cpu.branchPred.usedRAS                       0                       # Number of times the RAS was used to get a target.
system.cpu.branchPred.RASInCorrect                  0                       # Number of incorrect RAS predictions.
system.cpu.workload.num_syscalls                    0                       # Number of system calls
system.cpu.numCycles                        252407561                       # number of cpu cycles simulated
system.cpu.numWorkItemsStarted                      0                       # number of work items this cpu started
system.cpu.numWorkItemsCompleted                    0                       # number of work items this cpu completed
system.cpu.fetch.icacheStallCycles           11140956                       # Number of cycles fetch is stalled on an Icache miss
system.cpu.fetch.Insts                      112730744                       # Number of instructions fetch has processed
system.cpu.fetch.Branches                    10144722                       # Number of branches that fetch encountered
system.cpu.fetch.predictedBranches            3510207                       # Number of branches that fetch has predicted taken
system.cpu.fetch.Cycles                      43595455                       # Number of cycles fetch has run and was not squashing or blocked
system.cpu.fetch.SquashCycles                 4513104                       # Number of cycles fetch has spent squashing
system.cpu.fetch.BlockedCycles               96652216                       # Number of cycles fetch has spent blocked
system.cpu.fetch.CacheLines                  11062319                       # Number of cache lines fetched
system.cpu.fetch.IcacheSquashes                 68639                       # Number of outstanding Icache misses that were squashed
system.cpu.fetch.rateDist::samples          155699712                       # Number of instructions fetched each cycle (Total)
system.cpu.fetch.rateDist::mean              0.962576                       # Number of instructions fetched each cycle (Total)
system.cpu.fetch.rateDist::stdev             1.660732                       # Number of instructions fetched each cycle (Total)
system.cpu.fetch.rateDist::underflows               0      0.00%      0.00% # Number of instructions fetched each cycle (Total)
system.cpu.fetch.rateDist::0                112120193     72.01%     72.01% # Number of instructions fetched each cycle (Total)
system.cpu.fetch.rateDist::1                  7704946      4.95%     76.96% # Number of instructions fetched each cycle (Total)
system.cpu.fetch.rateDist::2                   651579      0.42%     77.38% # Number of instructions fetched each cycle (Total)
system.cpu.fetch.rateDist::3                    27246      0.02%     77.40% # Number of instructions fetched each cycle (Total)
system.cpu.fetch.rateDist::4                 35195748     22.60%    100.00% # Number of instructions fetched each cycle (Total)
system.cpu.fetch.rateDist::overflows                0      0.00%    100.00% # Number of instructions fetched each cycle (Total)
system.cpu.fetch.rateDist::min_value                0                       # Number of instructions fetched each cycle (Total)
system.cpu.fetch.rateDist::max_value                4                       # Number of instructions fetched each cycle (Total)
system.cpu.fetch.rateDist::total            155699712                       # Number of instructions fetched each cycle (Total)
system.cpu.fetch.branchRate                  0.040192                       # Number of branch fetches per cycle
system.cpu.fetch.rate                        0.446622                       # Number of inst fetches per cycle
system.cpu.decode.IdleCycles                 15881403                       # Number of cycles decode is idle
system.cpu.decode.BlockedCycles              92089319                       # Number of cycles decode is blocked
system.cpu.decode.RunCycles                  38146113                       # Number of cycles decode is running
system.cpu.decode.UnblockCycles               5271777                       # Number of cycles decode is unblocking
system.cpu.decode.SquashCycles                4311085                       # Number of cycles decode is squashing
system.cpu.decode.DecodedInsts              149419361                       # Number of instructions handled by decode
system.cpu.rename.SquashCycles                4311085                       # Number of cycles rename is squashing
system.cpu.rename.IdleCycles                 20053694                       # Number of cycles rename is idle
system.cpu.rename.BlockCycles                78968488                       # Number of cycles rename is blocking
system.cpu.rename.serializeStallCycles              0                       # count of cycles rename stalled for serializing inst
system.cpu.rename.RunCycles                  38588531                       # Number of cycles rename is running
system.cpu.rename.UnblockCycles              13777899                       # Number of cycles rename is unblocking
system.cpu.rename.RenamedInsts              148922274                       # Number of instructions processed by rename
system.cpu.rename.ROBFullEvents                198075                       # Number of times rename has blocked due to ROB full
system.cpu.rename.IQFullEvents                8237339                       # Number of times rename has blocked due to IQ full
system.cpu.rename.LSQFullEvents               3611097                       # Number of times rename has blocked due to LSQ full
system.cpu.rename.RenamedOperands           179390575                       # Number of destination operands rename has renamed
system.cpu.rename.RenameLookups             452913355                       # Number of register rename lookups that rename has made
system.cpu.rename.int_rename_lookups        452913355                       # Number of integer rename lookups
system.cpu.rename.CommittedMaps             158232972                       # Number of HB maps that are committed
system.cpu.rename.UndoneMaps                 21157507                       # Number of HB maps that are undone due to squashing
system.cpu.rename.serializingInsts                  0                       # count of serializing insts renamed
system.cpu.rename.tempSerializingInsts              0                       # count of temporary serializing insts renamed
system.cpu.rename.skidInsts                  28696173                       # count of insts added to the skid buffer
system.cpu.memDep0.insertedLoads             27681358                       # Number of loads inserted to the mem dependence unit.
system.cpu.memDep0.insertedStores            26728811                       # Number of stores inserted to the mem dependence unit.
system.cpu.memDep0.conflictingLoads               123                       # Number of conflicting loads.
system.cpu.memDep0.conflictingStores               19                       # Number of conflicting stores.
system.cpu.iq.iqInstsAdded                  148534835                       # Number of instructions added to the IQ (excludes non-spec)
system.cpu.iq.iqInstsIssued                 137937590                       # Number of instructions issued
system.cpu.iq.iqSquashedInstsIssued            337268                       # Number of squashed instructions issued
system.cpu.iq.iqSquashedInstsExamined        17053380                       # Number of squashed instructions iterated over during squash; mainly for profiling
system.cpu.iq.iqSquashedOperandsExamined     39156161                       # Number of squashed operands that are examined and possibly removed from graph
system.cpu.iq.issued_per_cycle::samples     155699712                       # Number of insts issued each cycle
system.cpu.iq.issued_per_cycle::mean         0.885921                       # Number of insts issued each cycle
system.cpu.iq.issued_per_cycle::stdev        1.269586                       # Number of insts issued each cycle
system.cpu.iq.issued_per_cycle::underflows            0      0.00%      0.00% # Number of insts issued each cycle
system.cpu.iq.issued_per_cycle::0            92131578     59.17%     59.17% # Number of insts issued each cycle
system.cpu.iq.issued_per_cycle::1            22447353     14.42%     73.59% # Number of insts issued each cycle
system.cpu.iq.issued_per_cycle::2            17868157     11.48%     85.07% # Number of insts issued each cycle
system.cpu.iq.issued_per_cycle::3            13256573      8.51%     93.58% # Number of insts issued each cycle
system.cpu.iq.issued_per_cycle::4             9996051      6.42%    100.00% # Number of insts issued each cycle
system.cpu.iq.issued_per_cycle::overflows            0      0.00%    100.00% # Number of insts issued each cycle
system.cpu.iq.issued_per_cycle::min_value            0                       # Number of insts issued each cycle
system.cpu.iq.issued_per_cycle::max_value            4                       # Number of insts issued each cycle
system.cpu.iq.issued_per_cycle::total       155699712                       # Number of insts issued each cycle
system.cpu.iq.fu_full::No_OpClass                   0      0.00%      0.00% # attempts to use FU when none available
system.cpu.iq.fu_full::IntAlu                 5319393    100.00%    100.00% # attempts to use FU when none available
system.cpu.iq.fu_full::IntMult                      0      0.00%    100.00% # attempts to use FU when none available
system.cpu.iq.fu_full::IntDiv                       0      0.00%    100.00% # attempts to use FU when none available
system.cpu.iq.fu_full::FloatAdd                     0      0.00%    100.00% # attempts to use FU when none available
system.cpu.iq.fu_full::FloatCmp                     0      0.00%    100.00% # attempts to use FU when none available
system.cpu.iq.fu_full::FloatCvt                     0      0.00%    100.00% # attempts to use FU when none available
system.cpu.iq.fu_full::FloatMult                    0      0.00%    100.00% # attempts to use FU when none available
system.cpu.iq.fu_full::FloatDiv                     0      0.00%    100.00% # attempts to use FU when none available
system.cpu.iq.fu_full::FloatSqrt                    0      0.00%    100.00% # attempts to use FU when none available
system.cpu.iq.fu_full::SimdAdd                      0      0.00%    100.00% # attempts to use FU when none available
system.cpu.iq.fu_full::SimdAddAcc                   0      0.00%    100.00% # attempts to use FU when none available
system.cpu.iq.fu_full::SimdAlu                      0      0.00%    100.00% # attempts to use FU when none available
system.cpu.iq.fu_full::SimdCmp                      0      0.00%    100.00% # attempts to use FU when none available
system.cpu.iq.fu_full::SimdCvt                      0      0.00%    100.00% # attempts to use FU when none available
system.cpu.iq.fu_full::SimdMisc                     0      0.00%    100.00% # attempts to use FU when none available
system.cpu.iq.fu_full::SimdMult                     0      0.00%    100.00% # attempts to use FU when none available
system.cpu.iq.fu_full::SimdMultAcc                  0      0.00%    100.00% # attempts to use FU when none available
system.cpu.iq.fu_full::SimdShift                    0      0.00%    100.00% # attempts to use FU when none available
system.cpu.iq.fu_full::SimdShiftAcc                 0      0.00%    100.00% # attempts to use FU when none available
system.cpu.iq.fu_full::SimdSqrt                     0      0.00%    100.00% # attempts to use FU when none available
system.cpu.iq.fu_full::SimdFloatAdd                 0      0.00%    100.00% # attempts to use FU when none available
system.cpu.iq.fu_full::SimdFloatAlu                 0      0.00%    100.00% # attempts to use FU when none available
system.cpu.iq.fu_full::SimdFloatCmp                 0      0.00%    100.00% # attempts to use FU when none available
system.cpu.iq.fu_full::SimdFloatCvt                 0      0.00%    100.00% # attempts to use FU when none available
system.cpu.iq.fu_full::SimdFloatDiv                 0      0.00%    100.00% # attempts to use FU when none available
system.cpu.iq.fu_full::SimdFloatMisc                0      0.00%    100.00% # attempts to use FU when none available
system.cpu.iq.fu_full::SimdFloatMult                0      0.00%    100.00% # attempts to use FU when none available
system.cpu.iq.fu_full::SimdFloatMultAcc             0      0.00%    100.00% # attempts to use FU when none available
system.cpu.iq.fu_full::SimdFloatSqrt                0      0.00%    100.00% # attempts to use FU when none available
system.cpu.iq.fu_full::MemRead                      0      0.00%    100.00% # attempts to use FU when none available
system.cpu.iq.fu_full::MemWrite                     0      0.00%    100.00% # attempts to use FU when none available
system.cpu.iq.fu_full::IprAccess                    0      0.00%    100.00% # attempts to use FU when none available
system.cpu.iq.fu_full::InstPrefetch                 0      0.00%    100.00% # attempts to use FU when none available
system.cpu.iq.FU_type_0::No_OpClass                36      0.00%      0.00% # Type of FU issued
system.cpu.iq.FU_type_0::IntAlu              87601593     63.51%     63.51% # Type of FU issued
system.cpu.iq.FU_type_0::IntMult                    0      0.00%     63.51% # Type of FU issued
system.cpu.iq.FU_type_0::IntDiv                     0      0.00%     63.51% # Type of FU issued
system.cpu.iq.FU_type_0::FloatAdd                   0      0.00%     63.51% # Type of FU issued
system.cpu.iq.FU_type_0::FloatCmp                   0      0.00%     63.51% # Type of FU issued
system.cpu.iq.FU_type_0::FloatCvt                   0      0.00%     63.51% # Type of FU issued
system.cpu.iq.FU_type_0::FloatMult                  0      0.00%     63.51% # Type of FU issued
system.cpu.iq.FU_type_0::FloatDiv                   0      0.00%     63.51% # Type of FU issued
system.cpu.iq.FU_type_0::FloatSqrt                  0      0.00%     63.51% # Type of FU issued
system.cpu.iq.FU_type_0::SimdAdd                    0      0.00%     63.51% # Type of FU issued
system.cpu.iq.FU_type_0::SimdAddAcc                 0      0.00%     63.51% # Type of FU issued
system.cpu.iq.FU_type_0::SimdAlu                    0      0.00%     63.51% # Type of FU issued
system.cpu.iq.FU_type_0::SimdCmp                    0      0.00%     63.51% # Type of FU issued
system.cpu.iq.FU_type_0::SimdCvt                    0      0.00%     63.51% # Type of FU issued
system.cpu.iq.FU_type_0::SimdMisc                   0      0.00%     63.51% # Type of FU issued
system.cpu.iq.FU_type_0::SimdMult                   0      0.00%     63.51% # Type of FU issued
system.cpu.iq.FU_type_0::SimdMultAcc                0      0.00%     63.51% # Type of FU issued
system.cpu.iq.FU_type_0::SimdShift                  0      0.00%     63.51% # Type of FU issued
system.cpu.iq.FU_type_0::SimdShiftAcc               0      0.00%     63.51% # Type of FU issued
system.cpu.iq.FU_type_0::SimdSqrt                   0      0.00%     63.51% # Type of FU issued
system.cpu.iq.FU_type_0::SimdFloatAdd               0      0.00%     63.51% # Type of FU issued
system.cpu.iq.FU_type_0::SimdFloatAlu               0      0.00%     63.51% # Type of FU issued
system.cpu.iq.FU_type_0::SimdFloatCmp               0      0.00%     63.51% # Type of FU issued
system.cpu.iq.FU_type_0::SimdFloatCvt               0      0.00%     63.51% # Type of FU issued
system.cpu.iq.FU_type_0::SimdFloatDiv               0      0.00%     63.51% # Type of FU issued
system.cpu.iq.FU_type_0::SimdFloatMisc              0      0.00%     63.51% # Type of FU issued
system.cpu.iq.FU_type_0::SimdFloatMult              0      0.00%     63.51% # Type of FU issued
system.cpu.iq.FU_type_0::SimdFloatMultAcc            0      0.00%     63.51% # Type of FU issued
system.cpu.iq.FU_type_0::SimdFloatSqrt              0      0.00%     63.51% # Type of FU issued
system.cpu.iq.FU_type_0::MemRead             25358936     18.38%     81.89% # Type of FU issued
system.cpu.iq.FU_type_0::MemWrite            24977025     18.11%    100.00% # Type of FU issued
system.cpu.iq.FU_type_0::IprAccess                  0      0.00%    100.00% # Type of FU issued
system.cpu.iq.FU_type_0::InstPrefetch               0      0.00%    100.00% # Type of FU issued
system.cpu.iq.FU_type_0::total              137937590                       # Type of FU issued
system.cpu.iq.rate                           0.546488                       # Inst issue rate
system.cpu.iq.fu_busy_cnt                     5319393                       # FU busy when requested
system.cpu.iq.fu_busy_rate                   0.038564                       # FU busy rate (busy events/executed inst)
system.cpu.iq.int_inst_queue_reads          437231553                       # Number of integer instruction queue reads
system.cpu.iq.int_inst_queue_writes         165588249                       # Number of integer instruction queue writes
system.cpu.iq.int_inst_queue_wakeup_accesses    137443252                       # Number of integer instruction queue wakeup accesses
system.cpu.iq.fp_inst_queue_reads                   0                       # Number of floating instruction queue reads
system.cpu.iq.fp_inst_queue_writes                  0                       # Number of floating instruction queue writes
system.cpu.iq.fp_inst_queue_wakeup_accesses            0                       # Number of floating instruction queue wakeup accesses
system.cpu.iq.int_alu_accesses              143256947                       # Number of integer alu accesses
system.cpu.iq.fp_alu_accesses                       0                       # Number of floating point alu accesses
system.cpu.iew.lsq.thread0.forwLoads              387                       # Number of loads that had data forwarded from stores
system.cpu.iew.lsq.thread0.invAddrLoads             0                       # Number of loads ignored due to an invalid address
system.cpu.iew.lsq.thread0.squashedLoads      3583560                       # Number of loads squashed
system.cpu.iew.lsq.thread0.ignoredResponses            0                       # Number of memory responses ignored because the instruction is squashed
system.cpu.iew.lsq.thread0.memOrderViolation           34                       # Number of memory ordering violations
system.cpu.iew.lsq.thread0.squashedStores      2373504                       # Number of stores squashed
system.cpu.iew.lsq.thread0.invAddrSwpfs             0                       # Number of software prefetches ignored due to an invalid address
system.cpu.iew.lsq.thread0.blockedLoads             0                       # Number of blocked loads due to partial load-store forwarding
system.cpu.iew.lsq.thread0.rescheduledLoads            0                       # Number of loads that were rescheduled
system.cpu.iew.lsq.thread0.cacheBlocked           637                       # Number of times an access to memory failed due to the cache being blocked
system.cpu.iew.iewIdleCycles                        0                       # Number of cycles IEW is idle
system.cpu.iew.iewSquashCycles                4311085                       # Number of cycles IEW is squashing
system.cpu.iew.iewBlockCycles                66566245                       # Number of cycles IEW is blocking
system.cpu.iew.iewUnblockCycles               1721534                       # Number of cycles IEW is unblocking
system.cpu.iew.iewDispatchedInsts           148534835                       # Number of instructions dispatched to IQ
system.cpu.iew.iewDispSquashedInsts                 0                       # Number of squashed instructions skipped by dispatch
system.cpu.iew.iewDispLoadInsts              27681358                       # Number of dispatched load instructions
system.cpu.iew.iewDispStoreInsts             26728811                       # Number of dispatched store instructions
system.cpu.iew.iewDispNonSpecInsts                  0                       # Number of dispatched non-speculative instructions
system.cpu.iew.iewIQFullEvents                1178112                       # Number of times the IQ has become full, causing a stall
system.cpu.iew.iewLSQFullEvents                  1664                       # Number of times the LSQ has become full, causing a stall
system.cpu.iew.memOrderViolationEvents             34                       # Number of memory order violations
system.cpu.iew.predictedTakenIncorrect          50734                       # Number of branches that were predicted taken incorrectly
system.cpu.iew.predictedNotTakenIncorrect       169468                       # Number of branches that were predicted not taken incorrectly
system.cpu.iew.branchMispredicts               220202                       # Number of branch mispredicts detected at execute
system.cpu.iew.iewExecutedInsts             137776309                       # Number of executed instructions
system.cpu.iew.iewExecLoadInsts              25295483                       # Number of load instructions executed
system.cpu.iew.iewExecSquashedInsts            161281                       # Number of squashed instructions skipped in execute
system.cpu.iew.exec_swp                             0                       # number of swp insts executed
system.cpu.iew.exec_nop                             0                       # number of nop insts executed
system.cpu.iew.exec_refs                     50224974                       # number of memory reference insts executed
system.cpu.iew.exec_branches                  8832722                       # Number of branches executed
system.cpu.iew.exec_stores                   24929491                       # Number of stores executed
system.cpu.iew.exec_rate                     0.545849                       # Inst execution rate
system.cpu.iew.wb_sent                      137539208                       # cumulative count of insts sent to commit
system.cpu.iew.wb_count                     137443252                       # cumulative count of insts written-back
system.cpu.iew.wb_producers                 100849367                       # num instructions producing a value
system.cpu.iew.wb_consumers                 218284494                       # num instructions consuming a value
system.cpu.iew.wb_penalized                         0                       # number of instrctions required to write to 'other' IQ
system.cpu.iew.wb_rate                       0.544529                       # insts written-back per cycle
system.cpu.iew.wb_fanout                     0.462009                       # average fanout of values written-back
system.cpu.iew.wb_penalized_rate                    0                       # fraction of instructions written-back that wrote to 'other' IQ
system.cpu.commit.commitSquashedInsts        17053909                       # The number of squashed insts skipped by commit
system.cpu.commit.branchMispredicts            201474                       # The number of times a branch was mispredicted
system.cpu.commit.committed_per_cycle::samples    151388627                       # Number of insts commited each cycle
system.cpu.commit.committed_per_cycle::mean     0.868499                       # Number of insts commited each cycle
system.cpu.commit.committed_per_cycle::stdev     1.356055                       # Number of insts commited each cycle
system.cpu.commit.committed_per_cycle::underflows            0      0.00%      0.00% # Number of insts commited each cycle
system.cpu.commit.committed_per_cycle::0     93901208     62.03%     62.03% # Number of insts commited each cycle
system.cpu.commit.committed_per_cycle::1     24677822     16.30%     78.33% # Number of insts commited each cycle
system.cpu.commit.committed_per_cycle::2      6996619      4.62%     82.95% # Number of insts commited each cycle
system.cpu.commit.committed_per_cycle::3     10442065      6.90%     89.85% # Number of insts commited each cycle
system.cpu.commit.committed_per_cycle::4     15370913     10.15%    100.00% # Number of insts commited each cycle
system.cpu.commit.committed_per_cycle::overflows            0      0.00%    100.00% # Number of insts commited each cycle
system.cpu.commit.committed_per_cycle::min_value            0                       # Number of insts commited each cycle
system.cpu.commit.committed_per_cycle::max_value            4                       # Number of insts commited each cycle
system.cpu.commit.committed_per_cycle::total    151388627                       # Number of insts commited each cycle
system.cpu.commit.committedInsts            100000003                       # Number of instructions committed
system.cpu.commit.committedOps              131480907                       # Number of ops (including micro ops) committed
system.cpu.commit.swp_count                         0                       # Number of s/w prefetches committed
system.cpu.commit.refs                       48453084                       # Number of memory references committed
system.cpu.commit.loads                      24097787                       # Number of loads committed
system.cpu.commit.membars                           0                       # Number of memory barriers committed
system.cpu.commit.branches                    8581311                       # Number of branches committed
system.cpu.commit.fp_insts                          0                       # Number of committed floating point instructions.
system.cpu.commit.int_insts                 131480906                       # Number of committed integer instructions.
system.cpu.commit.function_calls                    0                       # Number of function calls committed.
system.cpu.commit.bw_lim_events              15370913                       # number cycles where commit BW limit reached
system.cpu.commit.bw_limited                        0                       # number of insts not committed due to BW limits
system.cpu.rob.rob_reads                    284552530                       # The number of ROB reads
system.cpu.rob.rob_writes                   301380797                       # The number of ROB writes
system.cpu.timesIdled                         1924202                       # Number of times that the entire CPU went into an idle state and unscheduled itself
system.cpu.idleCycles                        96707849                       # Total number of cycles that the CPU has spent unscheduled due to idling
system.cpu.committedInsts                   100000003                       # Number of Instructions Simulated
system.cpu.committedOps                     131480907                       # Number of Ops (including micro ops) Simulated
system.cpu.committedInsts_total             100000003                       # Number of Instructions Simulated
system.cpu.cpi                               2.524076                       # CPI: Cycles Per Instruction
system.cpu.cpi_total                         2.524076                       # CPI: Total CPI of All Threads
system.cpu.ipc                               0.396185                       # IPC: Instructions Per Cycle
system.cpu.ipc_total                         0.396185                       # IPC: Total IPC of All Threads
system.cpu.int_regfile_reads                344547916                       # number of integer regfile reads
system.cpu.int_regfile_writes               164606768                       # number of integer regfile writes
system.cpu.misc_regfile_reads                68940236                       # number of misc regfile reads
system.cpu.itb_walker_cache.replacements            0                       # number of replacements
system.cpu.itb_walker_cache.tagsinuse               0                       # Cycle average of tags in use
system.cpu.itb_walker_cache.total_refs              0                       # Total number of references to valid blocks.
system.cpu.itb_walker_cache.sampled_refs            0                       # Sample count of references to valid blocks.
system.cpu.itb_walker_cache.avg_refs              nan                       # Average number of references to valid blocks.
system.cpu.itb_walker_cache.warmup_cycle            0                       # Cycle when the warmup percentage was hit.
system.cpu.itb_walker_cache.blocked_cycles::no_mshrs            0                       # number of cycles access was blocked
system.cpu.itb_walker_cache.blocked_cycles::no_targets            0                       # number of cycles access was blocked
system.cpu.itb_walker_cache.blocked::no_mshrs            0                       # number of cycles access was blocked
system.cpu.itb_walker_cache.blocked::no_targets            0                       # number of cycles access was blocked
system.cpu.itb_walker_cache.avg_blocked_cycles::no_mshrs          nan                       # average number of cycles each access was blocked
system.cpu.itb_walker_cache.avg_blocked_cycles::no_targets          nan                       # average number of cycles each access was blocked
system.cpu.itb_walker_cache.fast_writes             0                       # number of fast writes performed
system.cpu.itb_walker_cache.cache_copies            0                       # number of cache copies performed
system.cpu.itb_walker_cache.no_allocate_misses            0                       # Number of misses that were no-allocate
system.cpu.dtb_walker_cache.replacements            0                       # number of replacements
system.cpu.dtb_walker_cache.tagsinuse               0                       # Cycle average of tags in use
system.cpu.dtb_walker_cache.total_refs              0                       # Total number of references to valid blocks.
system.cpu.dtb_walker_cache.sampled_refs            0                       # Sample count of references to valid blocks.
system.cpu.dtb_walker_cache.avg_refs              nan                       # Average number of references to valid blocks.
system.cpu.dtb_walker_cache.warmup_cycle            0                       # Cycle when the warmup percentage was hit.
system.cpu.dtb_walker_cache.blocked_cycles::no_mshrs            0                       # number of cycles access was blocked
system.cpu.dtb_walker_cache.blocked_cycles::no_targets            0                       # number of cycles access was blocked
system.cpu.dtb_walker_cache.blocked::no_mshrs            0                       # number of cycles access was blocked
system.cpu.dtb_walker_cache.blocked::no_targets            0                       # number of cycles access was blocked
system.cpu.dtb_walker_cache.avg_blocked_cycles::no_mshrs          nan                       # average number of cycles each access was blocked
system.cpu.dtb_walker_cache.avg_blocked_cycles::no_targets          nan                       # average number of cycles each access was blocked
system.cpu.dtb_walker_cache.fast_writes             0                       # number of fast writes performed
system.cpu.dtb_walker_cache.cache_copies            0                       # number of cache copies performed
system.cpu.dtb_walker_cache.no_allocate_misses            0                       # Number of misses that were no-allocate
system.cpu.icache.replacements                      0                       # number of replacements
system.cpu.icache.tagsinuse                 14.999921                       # Cycle average of tags in use
system.cpu.icache.total_refs                 11062299                       # Total number of references to valid blocks.
system.cpu.icache.sampled_refs                     15                       # Sample count of references to valid blocks.
system.cpu.icache.avg_refs               737486.600000                       # Average number of references to valid blocks.
system.cpu.icache.warmup_cycle                      0                       # Cycle when the warmup percentage was hit.
system.cpu.icache.occ_blocks::cpu.inst      14.999921                       # Average occupied blocks per requestor
system.cpu.icache.occ_percent::cpu.inst      0.029297                       # Average percentage of cache occupancy
system.cpu.icache.occ_percent::total         0.029297                       # Average percentage of cache occupancy
system.cpu.icache.ReadReq_hits::cpu.inst     11062299                       # number of ReadReq hits
system.cpu.icache.ReadReq_hits::total        11062299                       # number of ReadReq hits
system.cpu.icache.demand_hits::cpu.inst      11062299                       # number of demand (read+write) hits
system.cpu.icache.demand_hits::total         11062299                       # number of demand (read+write) hits
system.cpu.icache.overall_hits::cpu.inst     11062299                       # number of overall hits
system.cpu.icache.overall_hits::total        11062299                       # number of overall hits
system.cpu.icache.ReadReq_misses::cpu.inst           20                       # number of ReadReq misses
system.cpu.icache.ReadReq_misses::total            20                       # number of ReadReq misses
system.cpu.icache.demand_misses::cpu.inst           20                       # number of demand (read+write) misses
system.cpu.icache.demand_misses::total             20                       # number of demand (read+write) misses
system.cpu.icache.overall_misses::cpu.inst           20                       # number of overall misses
system.cpu.icache.overall_misses::total            20                       # number of overall misses
system.cpu.icache.ReadReq_miss_latency::cpu.inst      1108500                       # number of ReadReq miss cycles
system.cpu.icache.ReadReq_miss_latency::total      1108500                       # number of ReadReq miss cycles
system.cpu.icache.demand_miss_latency::cpu.inst      1108500                       # number of demand (read+write) miss cycles
system.cpu.icache.demand_miss_latency::total      1108500                       # number of demand (read+write) miss cycles
system.cpu.icache.overall_miss_latency::cpu.inst      1108500                       # number of overall miss cycles
system.cpu.icache.overall_miss_latency::total      1108500                       # number of overall miss cycles
system.cpu.icache.ReadReq_accesses::cpu.inst     11062319                       # number of ReadReq accesses(hits+misses)
system.cpu.icache.ReadReq_accesses::total     11062319                       # number of ReadReq accesses(hits+misses)
system.cpu.icache.demand_accesses::cpu.inst     11062319                       # number of demand (read+write) accesses
system.cpu.icache.demand_accesses::total     11062319                       # number of demand (read+write) accesses
system.cpu.icache.overall_accesses::cpu.inst     11062319                       # number of overall (read+write) accesses
system.cpu.icache.overall_accesses::total     11062319                       # number of overall (read+write) accesses
system.cpu.icache.ReadReq_miss_rate::cpu.inst     0.000002                       # miss rate for ReadReq accesses
system.cpu.icache.ReadReq_miss_rate::total     0.000002                       # miss rate for ReadReq accesses
system.cpu.icache.demand_miss_rate::cpu.inst     0.000002                       # miss rate for demand accesses
system.cpu.icache.demand_miss_rate::total     0.000002                       # miss rate for demand accesses
system.cpu.icache.overall_miss_rate::cpu.inst     0.000002                       # miss rate for overall accesses
system.cpu.icache.overall_miss_rate::total     0.000002                       # miss rate for overall accesses
system.cpu.icache.ReadReq_avg_miss_latency::cpu.inst        55425                       # average ReadReq miss latency
system.cpu.icache.ReadReq_avg_miss_latency::total        55425                       # average ReadReq miss latency
system.cpu.icache.demand_avg_miss_latency::cpu.inst        55425                       # average overall miss latency
system.cpu.icache.demand_avg_miss_latency::total        55425                       # average overall miss latency
system.cpu.icache.overall_avg_miss_latency::cpu.inst        55425                       # average overall miss latency
system.cpu.icache.overall_avg_miss_latency::total        55425                       # average overall miss latency
system.cpu.icache.blocked_cycles::no_mshrs            0                       # number of cycles access was blocked
system.cpu.icache.blocked_cycles::no_targets            0                       # number of cycles access was blocked
system.cpu.icache.blocked::no_mshrs                 0                       # number of cycles access was blocked
system.cpu.icache.blocked::no_targets               0                       # number of cycles access was blocked
system.cpu.icache.avg_blocked_cycles::no_mshrs          nan                       # average number of cycles each access was blocked
system.cpu.icache.avg_blocked_cycles::no_targets          nan                       # average number of cycles each access was blocked
system.cpu.icache.fast_writes                       0                       # number of fast writes performed
system.cpu.icache.cache_copies                      0                       # number of cache copies performed
system.cpu.icache.ReadReq_mshr_hits::cpu.inst            5                       # number of ReadReq MSHR hits
system.cpu.icache.ReadReq_mshr_hits::total            5                       # number of ReadReq MSHR hits
system.cpu.icache.demand_mshr_hits::cpu.inst            5                       # number of demand (read+write) MSHR hits
system.cpu.icache.demand_mshr_hits::total            5                       # number of demand (read+write) MSHR hits
system.cpu.icache.overall_mshr_hits::cpu.inst            5                       # number of overall MSHR hits
system.cpu.icache.overall_mshr_hits::total            5                       # number of overall MSHR hits
system.cpu.icache.ReadReq_mshr_misses::cpu.inst           15                       # number of ReadReq MSHR misses
system.cpu.icache.ReadReq_mshr_misses::total           15                       # number of ReadReq MSHR misses
system.cpu.icache.demand_mshr_misses::cpu.inst           15                       # number of demand (read+write) MSHR misses
system.cpu.icache.demand_mshr_misses::total           15                       # number of demand (read+write) MSHR misses
system.cpu.icache.overall_mshr_misses::cpu.inst           15                       # number of overall MSHR misses
system.cpu.icache.overall_mshr_misses::total           15                       # number of overall MSHR misses
system.cpu.icache.ReadReq_mshr_miss_latency::cpu.inst       878500                       # number of ReadReq MSHR miss cycles
system.cpu.icache.ReadReq_mshr_miss_latency::total       878500                       # number of ReadReq MSHR miss cycles
system.cpu.icache.demand_mshr_miss_latency::cpu.inst       878500                       # number of demand (read+write) MSHR miss cycles
system.cpu.icache.demand_mshr_miss_latency::total       878500                       # number of demand (read+write) MSHR miss cycles
system.cpu.icache.overall_mshr_miss_latency::cpu.inst       878500                       # number of overall MSHR miss cycles
system.cpu.icache.overall_mshr_miss_latency::total       878500                       # number of overall MSHR miss cycles
system.cpu.icache.ReadReq_mshr_miss_rate::cpu.inst     0.000001                       # mshr miss rate for ReadReq accesses
system.cpu.icache.ReadReq_mshr_miss_rate::total     0.000001                       # mshr miss rate for ReadReq accesses
system.cpu.icache.demand_mshr_miss_rate::cpu.inst     0.000001                       # mshr miss rate for demand accesses
system.cpu.icache.demand_mshr_miss_rate::total     0.000001                       # mshr miss rate for demand accesses
system.cpu.icache.overall_mshr_miss_rate::cpu.inst     0.000001                       # mshr miss rate for overall accesses
system.cpu.icache.overall_mshr_miss_rate::total     0.000001                       # mshr miss rate for overall accesses
system.cpu.icache.ReadReq_avg_mshr_miss_latency::cpu.inst 58566.666667                       # average ReadReq mshr miss latency
system.cpu.icache.ReadReq_avg_mshr_miss_latency::total 58566.666667                       # average ReadReq mshr miss latency
system.cpu.icache.demand_avg_mshr_miss_latency::cpu.inst 58566.666667                       # average overall mshr miss latency
system.cpu.icache.demand_avg_mshr_miss_latency::total 58566.666667                       # average overall mshr miss latency
system.cpu.icache.overall_avg_mshr_miss_latency::cpu.inst 58566.666667                       # average overall mshr miss latency
system.cpu.icache.overall_avg_mshr_miss_latency::total 58566.666667                       # average overall mshr miss latency
system.cpu.icache.no_allocate_misses                0                       # Number of misses that were no-allocate
system.cpu.dcache.replacements                2916767                       # number of replacements
system.cpu.dcache.tagsinuse                511.913100                       # Cycle average of tags in use
system.cpu.dcache.total_refs                 45518647                       # Total number of references to valid blocks.
system.cpu.dcache.sampled_refs                2917279                       # Sample count of references to valid blocks.
system.cpu.dcache.avg_refs                  15.603117                       # Average number of references to valid blocks.
system.cpu.dcache.warmup_cycle           16444508105000                       # Cycle when the warmup percentage was hit.
system.cpu.dcache.occ_blocks::cpu.data     511.913100                       # Average occupied blocks per requestor
system.cpu.dcache.occ_percent::cpu.data      0.999830                       # Average percentage of cache occupancy
system.cpu.dcache.occ_percent::total         0.999830                       # Average percentage of cache occupancy
system.cpu.dcache.ReadReq_hits::cpu.data     21167495                       # number of ReadReq hits
system.cpu.dcache.ReadReq_hits::total        21167495                       # number of ReadReq hits
system.cpu.dcache.WriteReq_hits::cpu.data     24351152                       # number of WriteReq hits
system.cpu.dcache.WriteReq_hits::total       24351152                       # number of WriteReq hits
system.cpu.dcache.demand_hits::cpu.data      45518647                       # number of demand (read+write) hits
system.cpu.dcache.demand_hits::total         45518647                       # number of demand (read+write) hits
system.cpu.dcache.overall_hits::cpu.data     45518647                       # number of overall hits
system.cpu.dcache.overall_hits::total        45518647                       # number of overall hits
system.cpu.dcache.ReadReq_misses::cpu.data      4066757                       # number of ReadReq misses
system.cpu.dcache.ReadReq_misses::total       4066757                       # number of ReadReq misses
system.cpu.dcache.WriteReq_misses::cpu.data         4137                       # number of WriteReq misses
system.cpu.dcache.WriteReq_misses::total         4137                       # number of WriteReq misses
system.cpu.dcache.demand_misses::cpu.data      4070894                       # number of demand (read+write) misses
system.cpu.dcache.demand_misses::total        4070894                       # number of demand (read+write) misses
system.cpu.dcache.overall_misses::cpu.data      4070894                       # number of overall misses
system.cpu.dcache.overall_misses::total       4070894                       # number of overall misses
system.cpu.dcache.ReadReq_miss_latency::cpu.data 220814737000                       # number of ReadReq miss cycles
system.cpu.dcache.ReadReq_miss_latency::total 220814737000                       # number of ReadReq miss cycles
system.cpu.dcache.WriteReq_miss_latency::cpu.data     63558000                       # number of WriteReq miss cycles
system.cpu.dcache.WriteReq_miss_latency::total     63558000                       # number of WriteReq miss cycles
system.cpu.dcache.demand_miss_latency::cpu.data 220878295000                       # number of demand (read+write) miss cycles
system.cpu.dcache.demand_miss_latency::total 220878295000                       # number of demand (read+write) miss cycles
system.cpu.dcache.overall_miss_latency::cpu.data 220878295000                       # number of overall miss cycles
system.cpu.dcache.overall_miss_latency::total 220878295000                       # number of overall miss cycles
system.cpu.dcache.ReadReq_accesses::cpu.data     25234252                       # number of ReadReq accesses(hits+misses)
system.cpu.dcache.ReadReq_accesses::total     25234252                       # number of ReadReq accesses(hits+misses)
system.cpu.dcache.WriteReq_accesses::cpu.data     24355289                       # number of WriteReq accesses(hits+misses)
system.cpu.dcache.WriteReq_accesses::total     24355289                       # number of WriteReq accesses(hits+misses)
system.cpu.dcache.demand_accesses::cpu.data     49589541                       # number of demand (read+write) accesses
system.cpu.dcache.demand_accesses::total     49589541                       # number of demand (read+write) accesses
system.cpu.dcache.overall_accesses::cpu.data     49589541                       # number of overall (read+write) accesses
system.cpu.dcache.overall_accesses::total     49589541                       # number of overall (read+write) accesses
system.cpu.dcache.ReadReq_miss_rate::cpu.data     0.161160                       # miss rate for ReadReq accesses
system.cpu.dcache.ReadReq_miss_rate::total     0.161160                       # miss rate for ReadReq accesses
system.cpu.dcache.WriteReq_miss_rate::cpu.data     0.000170                       # miss rate for WriteReq accesses
system.cpu.dcache.WriteReq_miss_rate::total     0.000170                       # miss rate for WriteReq accesses
system.cpu.dcache.demand_miss_rate::cpu.data     0.082092                       # miss rate for demand accesses
system.cpu.dcache.demand_miss_rate::total     0.082092                       # miss rate for demand accesses
system.cpu.dcache.overall_miss_rate::cpu.data     0.082092                       # miss rate for overall accesses
system.cpu.dcache.overall_miss_rate::total     0.082092                       # miss rate for overall accesses
system.cpu.dcache.ReadReq_avg_miss_latency::cpu.data 54297.499703                       # average ReadReq miss latency
system.cpu.dcache.ReadReq_avg_miss_latency::total 54297.499703                       # average ReadReq miss latency
system.cpu.dcache.WriteReq_avg_miss_latency::cpu.data 15363.306744                       # average WriteReq miss latency
system.cpu.dcache.WriteReq_avg_miss_latency::total 15363.306744                       # average WriteReq miss latency
system.cpu.dcache.demand_avg_miss_latency::cpu.data 54257.933270                       # average overall miss latency
system.cpu.dcache.demand_avg_miss_latency::total 54257.933270                       # average overall miss latency
system.cpu.dcache.overall_avg_miss_latency::cpu.data 54257.933270                       # average overall miss latency
system.cpu.dcache.overall_avg_miss_latency::total 54257.933270                       # average overall miss latency
system.cpu.dcache.blocked_cycles::no_mshrs       750204                       # number of cycles access was blocked
system.cpu.dcache.blocked_cycles::no_targets            0                       # number of cycles access was blocked
system.cpu.dcache.blocked::no_mshrs             81122                       # number of cycles access was blocked
system.cpu.dcache.blocked::no_targets               0                       # number of cycles access was blocked
system.cpu.dcache.avg_blocked_cycles::no_mshrs     9.247849                       # average number of cycles each access was blocked
system.cpu.dcache.avg_blocked_cycles::no_targets          nan                       # average number of cycles each access was blocked
system.cpu.dcache.fast_writes                       0                       # number of fast writes performed
system.cpu.dcache.cache_copies                      0                       # number of cache copies performed
system.cpu.dcache.writebacks::writebacks      1474761                       # number of writebacks
system.cpu.dcache.writebacks::total           1474761                       # number of writebacks
system.cpu.dcache.ReadReq_mshr_hits::cpu.data      1153613                       # number of ReadReq MSHR hits
system.cpu.dcache.ReadReq_mshr_hits::total      1153613                       # number of ReadReq MSHR hits
system.cpu.dcache.demand_mshr_hits::cpu.data      1153613                       # number of demand (read+write) MSHR hits
system.cpu.dcache.demand_mshr_hits::total      1153613                       # number of demand (read+write) MSHR hits
system.cpu.dcache.overall_mshr_hits::cpu.data      1153613                       # number of overall MSHR hits
system.cpu.dcache.overall_mshr_hits::total      1153613                       # number of overall MSHR hits
system.cpu.dcache.ReadReq_mshr_misses::cpu.data      2913144                       # number of ReadReq MSHR misses
system.cpu.dcache.ReadReq_mshr_misses::total      2913144                       # number of ReadReq MSHR misses
system.cpu.dcache.WriteReq_mshr_misses::cpu.data         4137                       # number of WriteReq MSHR misses
system.cpu.dcache.WriteReq_mshr_misses::total         4137                       # number of WriteReq MSHR misses
system.cpu.dcache.demand_mshr_misses::cpu.data      2917281                       # number of demand (read+write) MSHR misses
system.cpu.dcache.demand_mshr_misses::total      2917281                       # number of demand (read+write) MSHR misses
system.cpu.dcache.overall_mshr_misses::cpu.data      2917281                       # number of overall MSHR misses
system.cpu.dcache.overall_mshr_misses::total      2917281                       # number of overall MSHR misses
system.cpu.dcache.ReadReq_mshr_miss_latency::cpu.data 158388832500                       # number of ReadReq MSHR miss cycles
system.cpu.dcache.ReadReq_mshr_miss_latency::total 158388832500                       # number of ReadReq MSHR miss cycles
system.cpu.dcache.WriteReq_mshr_miss_latency::cpu.data     55284000                       # number of WriteReq MSHR miss cycles
system.cpu.dcache.WriteReq_mshr_miss_latency::total     55284000                       # number of WriteReq MSHR miss cycles
system.cpu.dcache.demand_mshr_miss_latency::cpu.data 158444116500                       # number of demand (read+write) MSHR miss cycles
system.cpu.dcache.demand_mshr_miss_latency::total 158444116500                       # number of demand (read+write) MSHR miss cycles
system.cpu.dcache.overall_mshr_miss_latency::cpu.data 158444116500                       # number of overall MSHR miss cycles
system.cpu.dcache.overall_mshr_miss_latency::total 158444116500                       # number of overall MSHR miss cycles
system.cpu.dcache.ReadReq_mshr_miss_rate::cpu.data     0.115444                       # mshr miss rate for ReadReq accesses
system.cpu.dcache.ReadReq_mshr_miss_rate::total     0.115444                       # mshr miss rate for ReadReq accesses
system.cpu.dcache.WriteReq_mshr_miss_rate::cpu.data     0.000170                       # mshr miss rate for WriteReq accesses
system.cpu.dcache.WriteReq_mshr_miss_rate::total     0.000170                       # mshr miss rate for WriteReq accesses
system.cpu.dcache.demand_mshr_miss_rate::cpu.data     0.058829                       # mshr miss rate for demand accesses
system.cpu.dcache.demand_mshr_miss_rate::total     0.058829                       # mshr miss rate for demand accesses
system.cpu.dcache.overall_mshr_miss_rate::cpu.data     0.058829                       # mshr miss rate for overall accesses
system.cpu.dcache.overall_mshr_miss_rate::total     0.058829                       # mshr miss rate for overall accesses
system.cpu.dcache.ReadReq_avg_mshr_miss_latency::cpu.data 54370.409599                       # average ReadReq mshr miss latency
system.cpu.dcache.ReadReq_avg_mshr_miss_latency::total 54370.409599                       # average ReadReq mshr miss latency
system.cpu.dcache.WriteReq_avg_mshr_miss_latency::cpu.data 13363.306744                       # average WriteReq mshr miss latency
system.cpu.dcache.WriteReq_avg_mshr_miss_latency::total 13363.306744                       # average WriteReq mshr miss latency
system.cpu.dcache.demand_avg_mshr_miss_latency::cpu.data 54312.257373                       # average overall mshr miss latency
system.cpu.dcache.demand_avg_mshr_miss_latency::total 54312.257373                       # average overall mshr miss latency
system.cpu.dcache.overall_avg_mshr_miss_latency::cpu.data 54312.257373                       # average overall mshr miss latency
system.cpu.dcache.overall_avg_mshr_miss_latency::total 54312.257373                       # average overall mshr miss latency
system.cpu.dcache.no_allocate_misses                0                       # Number of misses that were no-allocate

---------- End Simulation Statistics   ----------
