
---------- Begin Simulation Statistics ----------
sim_seconds                                  0.000031                       # Number of seconds simulated
sim_ticks                                    31271500                       # Number of ticks simulated
final_tick                                   31271500                       # Number of ticks from beginning of simulation (restored from checkpoints and never reset)
sim_freq                                 1000000000000                       # Frequency of simulated ticks
host_inst_rate                                  23027                       # Simulator instruction rate (inst/s)
host_op_rate                                    45928                       # Simulator op (including micro ops) rate (op/s)
host_tick_rate                              199149187                       # Simulator tick rate (ticks/s)
host_mem_usage                                2206000                       # Number of bytes of host memory used
host_seconds                                     0.16                       # Real time elapsed on the host
sim_insts                                        3615                       # Number of instructions simulated
sim_ops                                          7211                       # Number of ops (including micro ops) simulated
system.physmem.bytes_read::cpu.inst             14080                       # Number of bytes read from this memory
system.physmem.bytes_read::cpu.data              9280                       # Number of bytes read from this memory
system.physmem.bytes_read::total                23360                       # Number of bytes read from this memory
system.physmem.bytes_inst_read::cpu.inst        14080                       # Number of instructions bytes read from this memory
system.physmem.bytes_inst_read::total           14080                       # Number of instructions bytes read from this memory
system.physmem.num_reads::cpu.inst                220                       # Number of read requests responded to by this memory
system.physmem.num_reads::cpu.data                145                       # Number of read requests responded to by this memory
system.physmem.num_reads::total                   365                       # Number of read requests responded to by this memory
system.physmem.bw_read::cpu.inst            450250228                       # Total read bandwidth from this memory (bytes/s)
system.physmem.bw_read::cpu.data            296755832                       # Total read bandwidth from this memory (bytes/s)
system.physmem.bw_read::total               747006060                       # Total read bandwidth from this memory (bytes/s)
system.physmem.bw_inst_read::cpu.inst       450250228                       # Instruction read bandwidth from this memory (bytes/s)
system.physmem.bw_inst_read::total          450250228                       # Instruction read bandwidth from this memory (bytes/s)
system.physmem.bw_total::cpu.inst           450250228                       # Total bandwidth to/from this memory (bytes/s)
system.physmem.bw_total::cpu.data           296755832                       # Total bandwidth to/from this memory (bytes/s)
system.physmem.bw_total::total              747006060                       # Total bandwidth to/from this memory (bytes/s)
system.l2.replacements                              0                       # number of replacements
system.l2.tagsinuse                        147.695430                       # Cycle average of tags in use
system.l2.total_refs                               17                       # Total number of references to valid blocks.
system.l2.sampled_refs                            294                       # Sample count of references to valid blocks.
system.l2.avg_refs                           0.057823                       # Average number of references to valid blocks.
system.l2.warmup_cycle                              0                       # Cycle when the warmup percentage was hit.
system.l2.occ_blocks::writebacks             2.677166                       # Average occupied blocks per requestor
system.l2.occ_blocks::cpu.inst             108.277525                       # Average occupied blocks per requestor
system.l2.occ_blocks::cpu.data              36.740739                       # Average occupied blocks per requestor
system.l2.occ_percent::writebacks            0.002614                       # Average percentage of cache occupancy
system.l2.occ_percent::cpu.inst              0.105740                       # Average percentage of cache occupancy
system.l2.occ_percent::cpu.data              0.035880                       # Average percentage of cache occupancy
system.l2.occ_percent::total                 0.144234                       # Average percentage of cache occupancy
system.l2.ReadReq_hits::cpu.inst                    2                       # number of ReadReq hits
system.l2.ReadReq_hits::cpu.data                    4                       # number of ReadReq hits
system.l2.ReadReq_hits::total                       6                       # number of ReadReq hits
system.l2.Writeback_hits::writebacks               13                       # number of Writeback hits
system.l2.Writeback_hits::total                    13                       # number of Writeback hits
system.l2.ReadExReq_hits::cpu.data                  6                       # number of ReadExReq hits
system.l2.ReadExReq_hits::total                     6                       # number of ReadExReq hits
system.l2.demand_hits::cpu.inst                     2                       # number of demand (read+write) hits
system.l2.demand_hits::cpu.data                    10                       # number of demand (read+write) hits
system.l2.demand_hits::total                       12                       # number of demand (read+write) hits
system.l2.overall_hits::cpu.inst                    2                       # number of overall hits
system.l2.overall_hits::cpu.data                   10                       # number of overall hits
system.l2.overall_hits::total                      12                       # number of overall hits
system.l2.ReadReq_misses::cpu.inst                220                       # number of ReadReq misses
system.l2.ReadReq_misses::cpu.data                 72                       # number of ReadReq misses
system.l2.ReadReq_misses::total                   292                       # number of ReadReq misses
system.l2.ReadExReq_misses::cpu.data               73                       # number of ReadExReq misses
system.l2.ReadExReq_misses::total                  73                       # number of ReadExReq misses
system.l2.demand_misses::cpu.inst                 220                       # number of demand (read+write) misses
system.l2.demand_misses::cpu.data                 145                       # number of demand (read+write) misses
system.l2.demand_misses::total                    365                       # number of demand (read+write) misses
system.l2.overall_misses::cpu.inst                220                       # number of overall misses
system.l2.overall_misses::cpu.data                145                       # number of overall misses
system.l2.overall_misses::total                   365                       # number of overall misses
system.l2.ReadReq_miss_latency::cpu.inst     11571500                       # number of ReadReq miss cycles
system.l2.ReadReq_miss_latency::cpu.data      3793500                       # number of ReadReq miss cycles
system.l2.ReadReq_miss_latency::total        15365000                       # number of ReadReq miss cycles
system.l2.ReadExReq_miss_latency::cpu.data      3831000                       # number of ReadExReq miss cycles
system.l2.ReadExReq_miss_latency::total       3831000                       # number of ReadExReq miss cycles
system.l2.demand_miss_latency::cpu.inst      11571500                       # number of demand (read+write) miss cycles
system.l2.demand_miss_latency::cpu.data       7624500                       # number of demand (read+write) miss cycles
system.l2.demand_miss_latency::total         19196000                       # number of demand (read+write) miss cycles
system.l2.overall_miss_latency::cpu.inst     11571500                       # number of overall miss cycles
system.l2.overall_miss_latency::cpu.data      7624500                       # number of overall miss cycles
system.l2.overall_miss_latency::total        19196000                       # number of overall miss cycles
system.l2.ReadReq_accesses::cpu.inst              222                       # number of ReadReq accesses(hits+misses)
system.l2.ReadReq_accesses::cpu.data               76                       # number of ReadReq accesses(hits+misses)
system.l2.ReadReq_accesses::total                 298                       # number of ReadReq accesses(hits+misses)
system.l2.Writeback_accesses::writebacks           13                       # number of Writeback accesses(hits+misses)
system.l2.Writeback_accesses::total                13                       # number of Writeback accesses(hits+misses)
system.l2.ReadExReq_accesses::cpu.data             79                       # number of ReadExReq accesses(hits+misses)
system.l2.ReadExReq_accesses::total                79                       # number of ReadExReq accesses(hits+misses)
system.l2.demand_accesses::cpu.inst               222                       # number of demand (read+write) accesses
system.l2.demand_accesses::cpu.data               155                       # number of demand (read+write) accesses
system.l2.demand_accesses::total                  377                       # number of demand (read+write) accesses
system.l2.overall_accesses::cpu.inst              222                       # number of overall (read+write) accesses
system.l2.overall_accesses::cpu.data              155                       # number of overall (read+write) accesses
system.l2.overall_accesses::total                 377                       # number of overall (read+write) accesses
system.l2.ReadReq_miss_rate::cpu.inst        0.990991                       # miss rate for ReadReq accesses
system.l2.ReadReq_miss_rate::cpu.data        0.947368                       # miss rate for ReadReq accesses
system.l2.ReadReq_miss_rate::total           0.979866                       # miss rate for ReadReq accesses
system.l2.ReadExReq_miss_rate::cpu.data      0.924051                       # miss rate for ReadExReq accesses
system.l2.ReadExReq_miss_rate::total         0.924051                       # miss rate for ReadExReq accesses
system.l2.demand_miss_rate::cpu.inst         0.990991                       # miss rate for demand accesses
system.l2.demand_miss_rate::cpu.data         0.935484                       # miss rate for demand accesses
system.l2.demand_miss_rate::total            0.968170                       # miss rate for demand accesses
system.l2.overall_miss_rate::cpu.inst        0.990991                       # miss rate for overall accesses
system.l2.overall_miss_rate::cpu.data        0.935484                       # miss rate for overall accesses
system.l2.overall_miss_rate::total           0.968170                       # miss rate for overall accesses
system.l2.ReadReq_avg_miss_latency::cpu.inst 52597.727273                       # average ReadReq miss latency
system.l2.ReadReq_avg_miss_latency::cpu.data 52687.500000                       # average ReadReq miss latency
system.l2.ReadReq_avg_miss_latency::total 52619.863014                       # average ReadReq miss latency
system.l2.ReadExReq_avg_miss_latency::cpu.data 52479.452055                       # average ReadExReq miss latency
system.l2.ReadExReq_avg_miss_latency::total 52479.452055                       # average ReadExReq miss latency
system.l2.demand_avg_miss_latency::cpu.inst 52597.727273                       # average overall miss latency
system.l2.demand_avg_miss_latency::cpu.data 52582.758621                       # average overall miss latency
system.l2.demand_avg_miss_latency::total 52591.780822                       # average overall miss latency
system.l2.overall_avg_miss_latency::cpu.inst 52597.727273                       # average overall miss latency
system.l2.overall_avg_miss_latency::cpu.data 52582.758621                       # average overall miss latency
system.l2.overall_avg_miss_latency::total 52591.780822                       # average overall miss latency
system.l2.blocked_cycles::no_mshrs                  0                       # number of cycles access was blocked
system.l2.blocked_cycles::no_targets                0                       # number of cycles access was blocked
system.l2.blocked::no_mshrs                         0                       # number of cycles access was blocked
system.l2.blocked::no_targets                       0                       # number of cycles access was blocked
system.l2.avg_blocked_cycles::no_mshrs            nan                       # average number of cycles each access was blocked
system.l2.avg_blocked_cycles::no_targets          nan                       # average number of cycles each access was blocked
system.l2.fast_writes                               0                       # number of fast writes performed
system.l2.cache_copies                              0                       # number of cache copies performed
system.l2.ReadReq_mshr_misses::cpu.inst           220                       # number of ReadReq MSHR misses
system.l2.ReadReq_mshr_misses::cpu.data            72                       # number of ReadReq MSHR misses
system.l2.ReadReq_mshr_misses::total              292                       # number of ReadReq MSHR misses
system.l2.ReadExReq_mshr_misses::cpu.data           73                       # number of ReadExReq MSHR misses
system.l2.ReadExReq_mshr_misses::total             73                       # number of ReadExReq MSHR misses
system.l2.demand_mshr_misses::cpu.inst            220                       # number of demand (read+write) MSHR misses
system.l2.demand_mshr_misses::cpu.data            145                       # number of demand (read+write) MSHR misses
system.l2.demand_mshr_misses::total               365                       # number of demand (read+write) MSHR misses
system.l2.overall_mshr_misses::cpu.inst           220                       # number of overall MSHR misses
system.l2.overall_mshr_misses::cpu.data           145                       # number of overall MSHR misses
system.l2.overall_mshr_misses::total              365                       # number of overall MSHR misses
system.l2.ReadReq_mshr_miss_latency::cpu.inst      8876000                       # number of ReadReq MSHR miss cycles
system.l2.ReadReq_mshr_miss_latency::cpu.data      2912500                       # number of ReadReq MSHR miss cycles
system.l2.ReadReq_mshr_miss_latency::total     11788500                       # number of ReadReq MSHR miss cycles
system.l2.ReadExReq_mshr_miss_latency::cpu.data      2932500                       # number of ReadExReq MSHR miss cycles
system.l2.ReadExReq_mshr_miss_latency::total      2932500                       # number of ReadExReq MSHR miss cycles
system.l2.demand_mshr_miss_latency::cpu.inst      8876000                       # number of demand (read+write) MSHR miss cycles
system.l2.demand_mshr_miss_latency::cpu.data      5845000                       # number of demand (read+write) MSHR miss cycles
system.l2.demand_mshr_miss_latency::total     14721000                       # number of demand (read+write) MSHR miss cycles
system.l2.overall_mshr_miss_latency::cpu.inst      8876000                       # number of overall MSHR miss cycles
system.l2.overall_mshr_miss_latency::cpu.data      5845000                       # number of overall MSHR miss cycles
system.l2.overall_mshr_miss_latency::total     14721000                       # number of overall MSHR miss cycles
system.l2.ReadReq_mshr_miss_rate::cpu.inst     0.990991                       # mshr miss rate for ReadReq accesses
system.l2.ReadReq_mshr_miss_rate::cpu.data     0.947368                       # mshr miss rate for ReadReq accesses
system.l2.ReadReq_mshr_miss_rate::total      0.979866                       # mshr miss rate for ReadReq accesses
system.l2.ReadExReq_mshr_miss_rate::cpu.data     0.924051                       # mshr miss rate for ReadExReq accesses
system.l2.ReadExReq_mshr_miss_rate::total     0.924051                       # mshr miss rate for ReadExReq accesses
system.l2.demand_mshr_miss_rate::cpu.inst     0.990991                       # mshr miss rate for demand accesses
system.l2.demand_mshr_miss_rate::cpu.data     0.935484                       # mshr miss rate for demand accesses
system.l2.demand_mshr_miss_rate::total       0.968170                       # mshr miss rate for demand accesses
system.l2.overall_mshr_miss_rate::cpu.inst     0.990991                       # mshr miss rate for overall accesses
system.l2.overall_mshr_miss_rate::cpu.data     0.935484                       # mshr miss rate for overall accesses
system.l2.overall_mshr_miss_rate::total      0.968170                       # mshr miss rate for overall accesses
system.l2.ReadReq_avg_mshr_miss_latency::cpu.inst 40345.454545                       # average ReadReq mshr miss latency
system.l2.ReadReq_avg_mshr_miss_latency::cpu.data 40451.388889                       # average ReadReq mshr miss latency
system.l2.ReadReq_avg_mshr_miss_latency::total 40371.575342                       # average ReadReq mshr miss latency
system.l2.ReadExReq_avg_mshr_miss_latency::cpu.data 40171.232877                       # average ReadExReq mshr miss latency
system.l2.ReadExReq_avg_mshr_miss_latency::total 40171.232877                       # average ReadExReq mshr miss latency
system.l2.demand_avg_mshr_miss_latency::cpu.inst 40345.454545                       # average overall mshr miss latency
system.l2.demand_avg_mshr_miss_latency::cpu.data 40310.344828                       # average overall mshr miss latency
system.l2.demand_avg_mshr_miss_latency::total 40331.506849                       # average overall mshr miss latency
system.l2.overall_avg_mshr_miss_latency::cpu.inst 40345.454545                       # average overall mshr miss latency
system.l2.overall_avg_mshr_miss_latency::cpu.data 40310.344828                       # average overall mshr miss latency
system.l2.overall_avg_mshr_miss_latency::total 40331.506849                       # average overall mshr miss latency
system.l2.no_allocate_misses                        0                       # Number of misses that were no-allocate
system.cpu.branchPred.lookups                     786                       # Number of BP lookups
system.cpu.branchPred.condPredicted               786                       # Number of conditional branches predicted
system.cpu.branchPred.condIncorrect               341                       # Number of conditional branches incorrect
system.cpu.branchPred.BTBLookups                  725                       # Number of BTB lookups
system.cpu.branchPred.BTBHits                     240                       # Number of BTB hits
system.cpu.branchPred.BTBCorrect                    0                       # Number of correct BTB predictions (this stat may not work properly.
system.cpu.branchPred.BTBHitPct             33.103448                       # BTB Hit Percentage
system.cpu.branchPred.usedRAS                       0                       # Number of times the RAS was used to get a target.
system.cpu.branchPred.RASInCorrect                  0                       # Number of incorrect RAS predictions.
system.cpu.workload.num_syscalls                    7                       # Number of system calls
system.cpu.numCycles                            62544                       # number of cpu cycles simulated
system.cpu.numWorkItemsStarted                      0                       # number of work items this cpu started
system.cpu.numWorkItemsCompleted                    0                       # number of work items this cpu completed
system.cpu.fetch.icacheStallCycles               5230                       # Number of cycles fetch is stalled on an Icache miss
system.cpu.fetch.Insts                           4015                       # Number of instructions fetch has processed
system.cpu.fetch.Branches                         786                       # Number of branches that fetch encountered
system.cpu.fetch.predictedBranches                240                       # Number of branches that fetch has predicted taken
system.cpu.fetch.Cycles                          7857                       # Number of cycles fetch has run and was not squashing or blocked
system.cpu.fetch.SquashCycles                     684                       # Number of cycles fetch has spent squashing
system.cpu.fetch.BlockedCycles                  24786                       # Number of cycles fetch has spent blocked
system.cpu.fetch.CacheLines                       828                       # Number of cache lines fetched
system.cpu.fetch.IcacheSquashes                    26                       # Number of outstanding Icache misses that were squashed
system.cpu.fetch.rateDist::samples              38215                       # Number of instructions fetched each cycle (Total)
system.cpu.fetch.rateDist::mean              0.201335                       # Number of instructions fetched each cycle (Total)
system.cpu.fetch.rateDist::stdev             0.401003                       # Number of instructions fetched each cycle (Total)
system.cpu.fetch.rateDist::underflows               0      0.00%      0.00% # Number of instructions fetched each cycle (Total)
system.cpu.fetch.rateDist::0                    30521     79.87%     79.87% # Number of instructions fetched each cycle (Total)
system.cpu.fetch.rateDist::1                     7694     20.13%    100.00% # Number of instructions fetched each cycle (Total)
system.cpu.fetch.rateDist::overflows                0      0.00%    100.00% # Number of instructions fetched each cycle (Total)
system.cpu.fetch.rateDist::min_value                0                       # Number of instructions fetched each cycle (Total)
system.cpu.fetch.rateDist::max_value                1                       # Number of instructions fetched each cycle (Total)
system.cpu.fetch.rateDist::total                38215                       # Number of instructions fetched each cycle (Total)
system.cpu.fetch.branchRate                  0.012567                       # Number of branch fetches per cycle
system.cpu.fetch.rate                        0.064195                       # Number of inst fetches per cycle
system.cpu.decode.IdleCycles                     9661                       # Number of cycles decode is idle
system.cpu.decode.BlockedCycles                 20585                       # Number of cycles decode is blocked
system.cpu.decode.RunCycles                      5741                       # Number of cycles decode is running
system.cpu.decode.UnblockCycles                  1886                       # Number of cycles decode is unblocking
system.cpu.decode.SquashCycles                    342                       # Number of cycles decode is squashing
system.cpu.decode.DecodedInsts                   7627                       # Number of instructions handled by decode
system.cpu.rename.SquashCycles                    342                       # Number of cycles rename is squashing
system.cpu.rename.IdleCycles                    12225                       # Number of cycles rename is idle
system.cpu.rename.BlockCycles                   18035                       # Number of cycles rename is blocking
system.cpu.rename.serializeStallCycles            141                       # count of cycles rename stalled for serializing inst
system.cpu.rename.RunCycles                      2231                       # Number of cycles rename is running
system.cpu.rename.UnblockCycles                  5241                       # Number of cycles rename is unblocking
system.cpu.rename.RenamedInsts                   7463                       # Number of instructions processed by rename
system.cpu.rename.IQFullEvents                   1653                       # Number of times rename has blocked due to IQ full
system.cpu.rename.RenamedOperands                8264                       # Number of destination operands rename has renamed
system.cpu.rename.RenameLookups                 18006                       # Number of register rename lookups that rename has made
system.cpu.rename.int_rename_lookups            17674                       # Number of integer rename lookups
system.cpu.rename.fp_rename_lookups               332                       # Number of floating rename lookups
system.cpu.rename.CommittedMaps                  8024                       # Number of HB maps that are committed
system.cpu.rename.UndoneMaps                      240                       # Number of HB maps that are undone due to squashing
system.cpu.rename.serializingInsts                  9                       # count of serializing insts renamed
system.cpu.rename.tempSerializingInsts              9                       # count of temporary serializing insts renamed
system.cpu.rename.skidInsts                      5311                       # count of insts added to the skid buffer
system.cpu.memDep0.insertedLoads                  642                       # Number of loads inserted to the mem dependence unit.
system.cpu.memDep0.insertedStores                 718                       # Number of stores inserted to the mem dependence unit.
system.cpu.memDep0.conflictingLoads                 0                       # Number of conflicting loads.
system.cpu.memDep0.conflictingStores                0                       # Number of conflicting stores.
system.cpu.iq.iqInstsAdded                       7204                       # Number of instructions added to the IQ (excludes non-spec)
system.cpu.iq.iqNonSpecInstsAdded                   8                       # Number of non-speculative instructions added to the IQ
system.cpu.iq.iqInstsIssued                      7212                       # Number of instructions issued
system.cpu.iq.issued_per_cycle::samples         38215                       # Number of insts issued each cycle
system.cpu.iq.issued_per_cycle::mean         0.188722                       # Number of insts issued each cycle
system.cpu.iq.issued_per_cycle::stdev        0.391293                       # Number of insts issued each cycle
system.cpu.iq.issued_per_cycle::underflows            0      0.00%      0.00% # Number of insts issued each cycle
system.cpu.iq.issued_per_cycle::0               31003     81.13%     81.13% # Number of insts issued each cycle
system.cpu.iq.issued_per_cycle::1                7212     18.87%    100.00% # Number of insts issued each cycle
system.cpu.iq.issued_per_cycle::overflows            0      0.00%    100.00% # Number of insts issued each cycle
system.cpu.iq.issued_per_cycle::min_value            0                       # Number of insts issued each cycle
system.cpu.iq.issued_per_cycle::max_value            1                       # Number of insts issued each cycle
system.cpu.iq.issued_per_cycle::total           38215                       # Number of insts issued each cycle
system.cpu.iq.fu_full::No_OpClass                   0                       # attempts to use FU when none available
system.cpu.iq.fu_full::IntAlu                       0                       # attempts to use FU when none available
system.cpu.iq.fu_full::IntMult                      0                       # attempts to use FU when none available
system.cpu.iq.fu_full::IntDiv                       0                       # attempts to use FU when none available
system.cpu.iq.fu_full::FloatAdd                     0                       # attempts to use FU when none available
system.cpu.iq.fu_full::FloatCmp                     0                       # attempts to use FU when none available
system.cpu.iq.fu_full::FloatCvt                     0                       # attempts to use FU when none available
system.cpu.iq.fu_full::FloatMult                    0                       # attempts to use FU when none available
system.cpu.iq.fu_full::FloatDiv                     0                       # attempts to use FU when none available
system.cpu.iq.fu_full::FloatSqrt                    0                       # attempts to use FU when none available
system.cpu.iq.fu_full::SimdAdd                      0                       # attempts to use FU when none available
system.cpu.iq.fu_full::SimdAddAcc                   0                       # attempts to use FU when none available
system.cpu.iq.fu_full::SimdAlu                      0                       # attempts to use FU when none available
system.cpu.iq.fu_full::SimdCmp                      0                       # attempts to use FU when none available
system.cpu.iq.fu_full::SimdCvt                      0                       # attempts to use FU when none available
system.cpu.iq.fu_full::SimdMisc                     0                       # attempts to use FU when none available
system.cpu.iq.fu_full::SimdMult                     0                       # attempts to use FU when none available
system.cpu.iq.fu_full::SimdMultAcc                  0                       # attempts to use FU when none available
system.cpu.iq.fu_full::SimdShift                    0                       # attempts to use FU when none available
system.cpu.iq.fu_full::SimdShiftAcc                 0                       # attempts to use FU when none available
system.cpu.iq.fu_full::SimdSqrt                     0                       # attempts to use FU when none available
system.cpu.iq.fu_full::SimdFloatAdd                 0                       # attempts to use FU when none available
system.cpu.iq.fu_full::SimdFloatAlu                 0                       # attempts to use FU when none available
system.cpu.iq.fu_full::SimdFloatCmp                 0                       # attempts to use FU when none available
system.cpu.iq.fu_full::SimdFloatCvt                 0                       # attempts to use FU when none available
system.cpu.iq.fu_full::SimdFloatDiv                 0                       # attempts to use FU when none available
system.cpu.iq.fu_full::SimdFloatMisc                0                       # attempts to use FU when none available
system.cpu.iq.fu_full::SimdFloatMult                0                       # attempts to use FU when none available
system.cpu.iq.fu_full::SimdFloatMultAcc             0                       # attempts to use FU when none available
system.cpu.iq.fu_full::SimdFloatSqrt                0                       # attempts to use FU when none available
system.cpu.iq.fu_full::MemRead                      0                       # attempts to use FU when none available
system.cpu.iq.fu_full::MemWrite                     0                       # attempts to use FU when none available
system.cpu.iq.fu_full::IprAccess                    0                       # attempts to use FU when none available
system.cpu.iq.fu_full::InstPrefetch                 0                       # attempts to use FU when none available
system.cpu.iq.FU_type_0::No_OpClass                39      0.54%      0.54% # Type of FU issued
system.cpu.iq.FU_type_0::IntAlu                  5702     79.06%     79.60% # Type of FU issued
system.cpu.iq.FU_type_0::IntMult                    0      0.00%     79.60% # Type of FU issued
system.cpu.iq.FU_type_0::IntDiv                     0      0.00%     79.60% # Type of FU issued
system.cpu.iq.FU_type_0::FloatAdd                 111      1.54%     81.14% # Type of FU issued
system.cpu.iq.FU_type_0::FloatCmp                   0      0.00%     81.14% # Type of FU issued
system.cpu.iq.FU_type_0::FloatCvt                   0      0.00%     81.14% # Type of FU issued
system.cpu.iq.FU_type_0::FloatMult                  0      0.00%     81.14% # Type of FU issued
system.cpu.iq.FU_type_0::FloatDiv                   0      0.00%     81.14% # Type of FU issued
system.cpu.iq.FU_type_0::FloatSqrt                  0      0.00%     81.14% # Type of FU issued
system.cpu.iq.FU_type_0::SimdAdd                    0      0.00%     81.14% # Type of FU issued
system.cpu.iq.FU_type_0::SimdAddAcc                 0      0.00%     81.14% # Type of FU issued
system.cpu.iq.FU_type_0::SimdAlu                    0      0.00%     81.14% # Type of FU issued
system.cpu.iq.FU_type_0::SimdCmp                    0      0.00%     81.14% # Type of FU issued
system.cpu.iq.FU_type_0::SimdCvt                    0      0.00%     81.14% # Type of FU issued
system.cpu.iq.FU_type_0::SimdMisc                   0      0.00%     81.14% # Type of FU issued
system.cpu.iq.FU_type_0::SimdMult                   0      0.00%     81.14% # Type of FU issued
system.cpu.iq.FU_type_0::SimdMultAcc                0      0.00%     81.14% # Type of FU issued
system.cpu.iq.FU_type_0::SimdShift                  0      0.00%     81.14% # Type of FU issued
system.cpu.iq.FU_type_0::SimdShiftAcc               0      0.00%     81.14% # Type of FU issued
system.cpu.iq.FU_type_0::SimdSqrt                   0      0.00%     81.14% # Type of FU issued
system.cpu.iq.FU_type_0::SimdFloatAdd               0      0.00%     81.14% # Type of FU issued
system.cpu.iq.FU_type_0::SimdFloatAlu               0      0.00%     81.14% # Type of FU issued
system.cpu.iq.FU_type_0::SimdFloatCmp               0      0.00%     81.14% # Type of FU issued
system.cpu.iq.FU_type_0::SimdFloatCvt               0      0.00%     81.14% # Type of FU issued
system.cpu.iq.FU_type_0::SimdFloatDiv               0      0.00%     81.14% # Type of FU issued
system.cpu.iq.FU_type_0::SimdFloatMisc              0      0.00%     81.14% # Type of FU issued
system.cpu.iq.FU_type_0::SimdFloatMult              0      0.00%     81.14% # Type of FU issued
system.cpu.iq.FU_type_0::SimdFloatMultAcc            0      0.00%     81.14% # Type of FU issued
system.cpu.iq.FU_type_0::SimdFloatSqrt              0      0.00%     81.14% # Type of FU issued
system.cpu.iq.FU_type_0::MemRead                  642      8.90%     90.04% # Type of FU issued
system.cpu.iq.FU_type_0::MemWrite                 718      9.96%    100.00% # Type of FU issued
system.cpu.iq.FU_type_0::IprAccess                  0      0.00%    100.00% # Type of FU issued
system.cpu.iq.FU_type_0::InstPrefetch               0      0.00%    100.00% # Type of FU issued
system.cpu.iq.FU_type_0::total                   7212                       # Type of FU issued
system.cpu.iq.rate                           0.115311                       # Inst issue rate
system.cpu.iq.fu_busy_cnt                           0                       # FU busy when requested
system.cpu.iq.fu_busy_rate                          0                       # FU busy rate (busy events/executed inst)
system.cpu.iq.int_inst_queue_reads              52369                       # Number of integer instruction queue reads
system.cpu.iq.int_inst_queue_writes              7077                       # Number of integer instruction queue writes
system.cpu.iq.int_inst_queue_wakeup_accesses         7077                       # Number of integer instruction queue wakeup accesses
system.cpu.iq.fp_inst_queue_reads                 270                       # Number of floating instruction queue reads
system.cpu.iq.fp_inst_queue_writes                135                       # Number of floating instruction queue writes
system.cpu.iq.fp_inst_queue_wakeup_accesses          135                       # Number of floating instruction queue wakeup accesses
system.cpu.iq.int_alu_accesses                   7038                       # Number of integer alu accesses
system.cpu.iq.fp_alu_accesses                     135                       # Number of floating point alu accesses
system.cpu.iew.lsq.thread0.forwLoads                1                       # Number of loads that had data forwarded from stores
system.cpu.iew.lsq.thread0.invAddrLoads             0                       # Number of loads ignored due to an invalid address
system.cpu.iew.lsq.thread0.squashedLoads            0                       # Number of loads squashed
system.cpu.iew.lsq.thread0.ignoredResponses            0                       # Number of memory responses ignored because the instruction is squashed
system.cpu.iew.lsq.thread0.memOrderViolation            0                       # Number of memory ordering violations
system.cpu.iew.lsq.thread0.squashedStores            0                       # Number of stores squashed
system.cpu.iew.lsq.thread0.invAddrSwpfs             0                       # Number of software prefetches ignored due to an invalid address
system.cpu.iew.lsq.thread0.blockedLoads             0                       # Number of blocked loads due to partial load-store forwarding
system.cpu.iew.lsq.thread0.rescheduledLoads            0                       # Number of loads that were rescheduled
system.cpu.iew.lsq.thread0.cacheBlocked             0                       # Number of times an access to memory failed due to the cache being blocked
system.cpu.iew.iewIdleCycles                        0                       # Number of cycles IEW is idle
system.cpu.iew.iewSquashCycles                    342                       # Number of cycles IEW is squashing
system.cpu.iew.iewBlockCycles                    3896                       # Number of cycles IEW is blocking
system.cpu.iew.iewUnblockCycles                   453                       # Number of cycles IEW is unblocking
system.cpu.iew.iewDispatchedInsts                7212                       # Number of instructions dispatched to IQ
system.cpu.iew.iewDispSquashedInsts                 0                       # Number of squashed instructions skipped by dispatch
system.cpu.iew.iewDispLoadInsts                   642                       # Number of dispatched load instructions
system.cpu.iew.iewDispStoreInsts                  718                       # Number of dispatched store instructions
system.cpu.iew.iewDispNonSpecInsts                  8                       # Number of dispatched non-speculative instructions
system.cpu.iew.iewIQFullEvents                      0                       # Number of times the IQ has become full, causing a stall
system.cpu.iew.iewLSQFullEvents                     0                       # Number of times the LSQ has become full, causing a stall
system.cpu.iew.memOrderViolationEvents              0                       # Number of memory order violations
system.cpu.iew.predictedTakenIncorrect             37                       # Number of branches that were predicted taken incorrectly
system.cpu.iew.predictedNotTakenIncorrect          304                       # Number of branches that were predicted not taken incorrectly
system.cpu.iew.branchMispredicts                  341                       # Number of branch mispredicts detected at execute
system.cpu.iew.iewExecutedInsts                  7212                       # Number of executed instructions
system.cpu.iew.iewExecLoadInsts                   642                       # Number of load instructions executed
system.cpu.iew.iewExecSquashedInsts                 0                       # Number of squashed instructions skipped in execute
system.cpu.iew.exec_swp                             0                       # number of swp insts executed
system.cpu.iew.exec_nop                             0                       # number of nop insts executed
system.cpu.iew.exec_refs                         1360                       # number of memory reference insts executed
system.cpu.iew.exec_branches                      785                       # Number of branches executed
system.cpu.iew.exec_stores                        718                       # Number of stores executed
system.cpu.iew.exec_rate                     0.115311                       # Inst execution rate
system.cpu.iew.wb_sent                           7212                       # cumulative count of insts sent to commit
system.cpu.iew.wb_count                          7212                       # cumulative count of insts written-back
system.cpu.iew.wb_producers                         0                       # num instructions producing a value
system.cpu.iew.wb_consumers                         0                       # num instructions consuming a value
system.cpu.iew.wb_penalized                         0                       # number of instrctions required to write to 'other' IQ
system.cpu.iew.wb_rate                       0.115311                       # insts written-back per cycle
system.cpu.iew.wb_fanout                          nan                       # average fanout of values written-back
system.cpu.iew.wb_penalized_rate                    0                       # fraction of instructions written-back that wrote to 'other' IQ
system.cpu.commit.commitNonSpecStalls               8                       # The number of times commit has been forced to stall to communicate backwards
system.cpu.commit.branchMispredicts               341                       # The number of times a branch was mispredicted
system.cpu.commit.committed_per_cycle::samples        37873                       # Number of insts commited each cycle
system.cpu.commit.committed_per_cycle::mean     0.190399                       # Number of insts commited each cycle
system.cpu.commit.committed_per_cycle::stdev     0.392621                       # Number of insts commited each cycle
system.cpu.commit.committed_per_cycle::underflows            0      0.00%      0.00% # Number of insts commited each cycle
system.cpu.commit.committed_per_cycle::0        30662     80.96%     80.96% # Number of insts commited each cycle
system.cpu.commit.committed_per_cycle::1         7211     19.04%    100.00% # Number of insts commited each cycle
system.cpu.commit.committed_per_cycle::overflows            0      0.00%    100.00% # Number of insts commited each cycle
system.cpu.commit.committed_per_cycle::min_value            0                       # Number of insts commited each cycle
system.cpu.commit.committed_per_cycle::max_value            1                       # Number of insts commited each cycle
system.cpu.commit.committed_per_cycle::total        37873                       # Number of insts commited each cycle
system.cpu.commit.committedInsts                 3615                       # Number of instructions committed
system.cpu.commit.committedOps                   7211                       # Number of ops (including micro ops) committed
system.cpu.commit.swp_count                         0                       # Number of s/w prefetches committed
system.cpu.commit.refs                           1360                       # Number of memory references committed
system.cpu.commit.loads                           642                       # Number of loads committed
system.cpu.commit.membars                           0                       # Number of memory barriers committed
system.cpu.commit.branches                        785                       # Number of branches committed
system.cpu.commit.fp_insts                        135                       # Number of committed floating point instructions.
system.cpu.commit.int_insts                      7102                       # Number of committed integer instructions.
system.cpu.commit.function_calls                    0                       # Number of function calls committed.
system.cpu.commit.bw_lim_events                  7211                       # number cycles where commit BW limit reached
system.cpu.commit.bw_limited                        0                       # number of insts not committed due to BW limits
system.cpu.rob.rob_reads                        37873                       # The number of ROB reads
system.cpu.rob.rob_writes                       14764                       # The number of ROB writes
system.cpu.timesIdled                             283                       # Number of times that the entire CPU went into an idle state and unscheduled itself
system.cpu.idleCycles                           24329                       # Total number of cycles that the CPU has spent unscheduled due to idling
system.cpu.committedInsts                        3615                       # Number of Instructions Simulated
system.cpu.committedOps                          7211                       # Number of Ops (including micro ops) Simulated
system.cpu.committedInsts_total                  3615                       # Number of Instructions Simulated
system.cpu.cpi                              17.301245                       # CPI: Cycles Per Instruction
system.cpu.cpi_total                        17.301245                       # CPI: Total CPI of All Threads
system.cpu.ipc                               0.057799                       # IPC: Instructions Per Cycle
system.cpu.ipc_total                         0.057799                       # IPC: Total IPC of All Threads
system.cpu.int_regfile_reads                    14426                       # number of integer regfile reads
system.cpu.int_regfile_writes                    7923                       # number of integer regfile writes
system.cpu.fp_regfile_reads                       219                       # number of floating regfile reads
system.cpu.fp_regfile_writes                      107                       # number of floating regfile writes
system.cpu.misc_regfile_reads                    3046                       # number of misc regfile reads
system.cpu.misc_regfile_writes                      1                       # number of misc regfile writes
system.cpu.itb_walker_cache.replacements            0                       # number of replacements
system.cpu.itb_walker_cache.tagsinuse               0                       # Cycle average of tags in use
system.cpu.itb_walker_cache.total_refs              0                       # Total number of references to valid blocks.
system.cpu.itb_walker_cache.sampled_refs            0                       # Sample count of references to valid blocks.
system.cpu.itb_walker_cache.avg_refs              nan                       # Average number of references to valid blocks.
system.cpu.itb_walker_cache.warmup_cycle            0                       # Cycle when the warmup percentage was hit.
system.cpu.itb_walker_cache.blocked_cycles::no_mshrs            0                       # number of cycles access was blocked
system.cpu.itb_walker_cache.blocked_cycles::no_targets            0                       # number of cycles access was blocked
system.cpu.itb_walker_cache.blocked::no_mshrs            0                       # number of cycles access was blocked
system.cpu.itb_walker_cache.blocked::no_targets            0                       # number of cycles access was blocked
system.cpu.itb_walker_cache.avg_blocked_cycles::no_mshrs          nan                       # average number of cycles each access was blocked
system.cpu.itb_walker_cache.avg_blocked_cycles::no_targets          nan                       # average number of cycles each access was blocked
system.cpu.itb_walker_cache.fast_writes             0                       # number of fast writes performed
system.cpu.itb_walker_cache.cache_copies            0                       # number of cache copies performed
system.cpu.itb_walker_cache.no_allocate_misses            0                       # Number of misses that were no-allocate
system.cpu.dtb_walker_cache.replacements            0                       # number of replacements
system.cpu.dtb_walker_cache.tagsinuse               0                       # Cycle average of tags in use
system.cpu.dtb_walker_cache.total_refs              0                       # Total number of references to valid blocks.
system.cpu.dtb_walker_cache.sampled_refs            0                       # Sample count of references to valid blocks.
system.cpu.dtb_walker_cache.avg_refs              nan                       # Average number of references to valid blocks.
system.cpu.dtb_walker_cache.warmup_cycle            0                       # Cycle when the warmup percentage was hit.
system.cpu.dtb_walker_cache.blocked_cycles::no_mshrs            0                       # number of cycles access was blocked
system.cpu.dtb_walker_cache.blocked_cycles::no_targets            0                       # number of cycles access was blocked
system.cpu.dtb_walker_cache.blocked::no_mshrs            0                       # number of cycles access was blocked
system.cpu.dtb_walker_cache.blocked::no_targets            0                       # number of cycles access was blocked
system.cpu.dtb_walker_cache.avg_blocked_cycles::no_mshrs          nan                       # average number of cycles each access was blocked
system.cpu.dtb_walker_cache.avg_blocked_cycles::no_targets          nan                       # average number of cycles each access was blocked
system.cpu.dtb_walker_cache.fast_writes             0                       # number of fast writes performed
system.cpu.dtb_walker_cache.cache_copies            0                       # number of cache copies performed
system.cpu.dtb_walker_cache.no_allocate_misses            0                       # Number of misses that were no-allocate
system.cpu.icache.replacements                     33                       # number of replacements
system.cpu.icache.tagsinuse                100.998436                       # Cycle average of tags in use
system.cpu.icache.total_refs                      600                       # Total number of references to valid blocks.
system.cpu.icache.sampled_refs                    222                       # Sample count of references to valid blocks.
system.cpu.icache.avg_refs                   2.702703                       # Average number of references to valid blocks.
system.cpu.icache.warmup_cycle                      0                       # Cycle when the warmup percentage was hit.
system.cpu.icache.occ_blocks::cpu.inst     100.998436                       # Average occupied blocks per requestor
system.cpu.icache.occ_percent::cpu.inst      0.394525                       # Average percentage of cache occupancy
system.cpu.icache.occ_percent::total         0.394525                       # Average percentage of cache occupancy
system.cpu.icache.ReadReq_hits::cpu.inst          600                       # number of ReadReq hits
system.cpu.icache.ReadReq_hits::total             600                       # number of ReadReq hits
system.cpu.icache.demand_hits::cpu.inst           600                       # number of demand (read+write) hits
system.cpu.icache.demand_hits::total              600                       # number of demand (read+write) hits
system.cpu.icache.overall_hits::cpu.inst          600                       # number of overall hits
system.cpu.icache.overall_hits::total             600                       # number of overall hits
system.cpu.icache.ReadReq_misses::cpu.inst          228                       # number of ReadReq misses
system.cpu.icache.ReadReq_misses::total           228                       # number of ReadReq misses
system.cpu.icache.demand_misses::cpu.inst          228                       # number of demand (read+write) misses
system.cpu.icache.demand_misses::total            228                       # number of demand (read+write) misses
system.cpu.icache.overall_misses::cpu.inst          228                       # number of overall misses
system.cpu.icache.overall_misses::total           228                       # number of overall misses
system.cpu.icache.ReadReq_miss_latency::cpu.inst     12563500                       # number of ReadReq miss cycles
system.cpu.icache.ReadReq_miss_latency::total     12563500                       # number of ReadReq miss cycles
system.cpu.icache.demand_miss_latency::cpu.inst     12563500                       # number of demand (read+write) miss cycles
system.cpu.icache.demand_miss_latency::total     12563500                       # number of demand (read+write) miss cycles
system.cpu.icache.overall_miss_latency::cpu.inst     12563500                       # number of overall miss cycles
system.cpu.icache.overall_miss_latency::total     12563500                       # number of overall miss cycles
system.cpu.icache.ReadReq_accesses::cpu.inst          828                       # number of ReadReq accesses(hits+misses)
system.cpu.icache.ReadReq_accesses::total          828                       # number of ReadReq accesses(hits+misses)
system.cpu.icache.demand_accesses::cpu.inst          828                       # number of demand (read+write) accesses
system.cpu.icache.demand_accesses::total          828                       # number of demand (read+write) accesses
system.cpu.icache.overall_accesses::cpu.inst          828                       # number of overall (read+write) accesses
system.cpu.icache.overall_accesses::total          828                       # number of overall (read+write) accesses
system.cpu.icache.ReadReq_miss_rate::cpu.inst     0.275362                       # miss rate for ReadReq accesses
system.cpu.icache.ReadReq_miss_rate::total     0.275362                       # miss rate for ReadReq accesses
system.cpu.icache.demand_miss_rate::cpu.inst     0.275362                       # miss rate for demand accesses
system.cpu.icache.demand_miss_rate::total     0.275362                       # miss rate for demand accesses
system.cpu.icache.overall_miss_rate::cpu.inst     0.275362                       # miss rate for overall accesses
system.cpu.icache.overall_miss_rate::total     0.275362                       # miss rate for overall accesses
system.cpu.icache.ReadReq_avg_miss_latency::cpu.inst 55103.070175                       # average ReadReq miss latency
system.cpu.icache.ReadReq_avg_miss_latency::total 55103.070175                       # average ReadReq miss latency
system.cpu.icache.demand_avg_miss_latency::cpu.inst 55103.070175                       # average overall miss latency
system.cpu.icache.demand_avg_miss_latency::total 55103.070175                       # average overall miss latency
system.cpu.icache.overall_avg_miss_latency::cpu.inst 55103.070175                       # average overall miss latency
system.cpu.icache.overall_avg_miss_latency::total 55103.070175                       # average overall miss latency
system.cpu.icache.blocked_cycles::no_mshrs            0                       # number of cycles access was blocked
system.cpu.icache.blocked_cycles::no_targets            0                       # number of cycles access was blocked
system.cpu.icache.blocked::no_mshrs                 0                       # number of cycles access was blocked
system.cpu.icache.blocked::no_targets               0                       # number of cycles access was blocked
system.cpu.icache.avg_blocked_cycles::no_mshrs          nan                       # average number of cycles each access was blocked
system.cpu.icache.avg_blocked_cycles::no_targets          nan                       # average number of cycles each access was blocked
system.cpu.icache.fast_writes                       0                       # number of fast writes performed
system.cpu.icache.cache_copies                      0                       # number of cache copies performed
system.cpu.icache.ReadReq_mshr_hits::cpu.inst            6                       # number of ReadReq MSHR hits
system.cpu.icache.ReadReq_mshr_hits::total            6                       # number of ReadReq MSHR hits
system.cpu.icache.demand_mshr_hits::cpu.inst            6                       # number of demand (read+write) MSHR hits
system.cpu.icache.demand_mshr_hits::total            6                       # number of demand (read+write) MSHR hits
system.cpu.icache.overall_mshr_hits::cpu.inst            6                       # number of overall MSHR hits
system.cpu.icache.overall_mshr_hits::total            6                       # number of overall MSHR hits
system.cpu.icache.ReadReq_mshr_misses::cpu.inst          222                       # number of ReadReq MSHR misses
system.cpu.icache.ReadReq_mshr_misses::total          222                       # number of ReadReq MSHR misses
system.cpu.icache.demand_mshr_misses::cpu.inst          222                       # number of demand (read+write) MSHR misses
system.cpu.icache.demand_mshr_misses::total          222                       # number of demand (read+write) MSHR misses
system.cpu.icache.overall_mshr_misses::cpu.inst          222                       # number of overall MSHR misses
system.cpu.icache.overall_mshr_misses::total          222                       # number of overall MSHR misses
system.cpu.icache.ReadReq_mshr_miss_latency::cpu.inst     11813500                       # number of ReadReq MSHR miss cycles
system.cpu.icache.ReadReq_mshr_miss_latency::total     11813500                       # number of ReadReq MSHR miss cycles
system.cpu.icache.demand_mshr_miss_latency::cpu.inst     11813500                       # number of demand (read+write) MSHR miss cycles
system.cpu.icache.demand_mshr_miss_latency::total     11813500                       # number of demand (read+write) MSHR miss cycles
system.cpu.icache.overall_mshr_miss_latency::cpu.inst     11813500                       # number of overall MSHR miss cycles
system.cpu.icache.overall_mshr_miss_latency::total     11813500                       # number of overall MSHR miss cycles
system.cpu.icache.ReadReq_mshr_miss_rate::cpu.inst     0.268116                       # mshr miss rate for ReadReq accesses
system.cpu.icache.ReadReq_mshr_miss_rate::total     0.268116                       # mshr miss rate for ReadReq accesses
system.cpu.icache.demand_mshr_miss_rate::cpu.inst     0.268116                       # mshr miss rate for demand accesses
system.cpu.icache.demand_mshr_miss_rate::total     0.268116                       # mshr miss rate for demand accesses
system.cpu.icache.overall_mshr_miss_rate::cpu.inst     0.268116                       # mshr miss rate for overall accesses
system.cpu.icache.overall_mshr_miss_rate::total     0.268116                       # mshr miss rate for overall accesses
system.cpu.icache.ReadReq_avg_mshr_miss_latency::cpu.inst 53213.963964                       # average ReadReq mshr miss latency
system.cpu.icache.ReadReq_avg_mshr_miss_latency::total 53213.963964                       # average ReadReq mshr miss latency
system.cpu.icache.demand_avg_mshr_miss_latency::cpu.inst 53213.963964                       # average overall mshr miss latency
system.cpu.icache.demand_avg_mshr_miss_latency::total 53213.963964                       # average overall mshr miss latency
system.cpu.icache.overall_avg_mshr_miss_latency::cpu.inst 53213.963964                       # average overall mshr miss latency
system.cpu.icache.overall_avg_mshr_miss_latency::total 53213.963964                       # average overall mshr miss latency
system.cpu.icache.no_allocate_misses                0                       # Number of misses that were no-allocate
system.cpu.dcache.replacements                     28                       # number of replacements
system.cpu.dcache.tagsinuse                 74.019908                       # Cycle average of tags in use
system.cpu.dcache.total_refs                     1204                       # Total number of references to valid blocks.
system.cpu.dcache.sampled_refs                    155                       # Sample count of references to valid blocks.
system.cpu.dcache.avg_refs                   7.767742                       # Average number of references to valid blocks.
system.cpu.dcache.warmup_cycle                      0                       # Cycle when the warmup percentage was hit.
system.cpu.dcache.occ_blocks::cpu.data      74.019908                       # Average occupied blocks per requestor
system.cpu.dcache.occ_percent::cpu.data      0.289140                       # Average percentage of cache occupancy
system.cpu.dcache.occ_percent::total         0.289140                       # Average percentage of cache occupancy
system.cpu.dcache.ReadReq_hits::cpu.data          565                       # number of ReadReq hits
system.cpu.dcache.ReadReq_hits::total             565                       # number of ReadReq hits
system.cpu.dcache.WriteReq_hits::cpu.data          639                       # number of WriteReq hits
system.cpu.dcache.WriteReq_hits::total            639                       # number of WriteReq hits
system.cpu.dcache.demand_hits::cpu.data          1204                       # number of demand (read+write) hits
system.cpu.dcache.demand_hits::total             1204                       # number of demand (read+write) hits
system.cpu.dcache.overall_hits::cpu.data         1204                       # number of overall hits
system.cpu.dcache.overall_hits::total            1204                       # number of overall hits
system.cpu.dcache.ReadReq_misses::cpu.data           76                       # number of ReadReq misses
system.cpu.dcache.ReadReq_misses::total            76                       # number of ReadReq misses
system.cpu.dcache.WriteReq_misses::cpu.data           79                       # number of WriteReq misses
system.cpu.dcache.WriteReq_misses::total           79                       # number of WriteReq misses
system.cpu.dcache.demand_misses::cpu.data          155                       # number of demand (read+write) misses
system.cpu.dcache.demand_misses::total            155                       # number of demand (read+write) misses
system.cpu.dcache.overall_misses::cpu.data          155                       # number of overall misses
system.cpu.dcache.overall_misses::total           155                       # number of overall misses
system.cpu.dcache.ReadReq_miss_latency::cpu.data      4061500                       # number of ReadReq miss cycles
system.cpu.dcache.ReadReq_miss_latency::total      4061500                       # number of ReadReq miss cycles
system.cpu.dcache.WriteReq_miss_latency::cpu.data      4128000                       # number of WriteReq miss cycles
system.cpu.dcache.WriteReq_miss_latency::total      4128000                       # number of WriteReq miss cycles
system.cpu.dcache.demand_miss_latency::cpu.data      8189500                       # number of demand (read+write) miss cycles
system.cpu.dcache.demand_miss_latency::total      8189500                       # number of demand (read+write) miss cycles
system.cpu.dcache.overall_miss_latency::cpu.data      8189500                       # number of overall miss cycles
system.cpu.dcache.overall_miss_latency::total      8189500                       # number of overall miss cycles
system.cpu.dcache.ReadReq_accesses::cpu.data          641                       # number of ReadReq accesses(hits+misses)
system.cpu.dcache.ReadReq_accesses::total          641                       # number of ReadReq accesses(hits+misses)
system.cpu.dcache.WriteReq_accesses::cpu.data          718                       # number of WriteReq accesses(hits+misses)
system.cpu.dcache.WriteReq_accesses::total          718                       # number of WriteReq accesses(hits+misses)
system.cpu.dcache.demand_accesses::cpu.data         1359                       # number of demand (read+write) accesses
system.cpu.dcache.demand_accesses::total         1359                       # number of demand (read+write) accesses
system.cpu.dcache.overall_accesses::cpu.data         1359                       # number of overall (read+write) accesses
system.cpu.dcache.overall_accesses::total         1359                       # number of overall (read+write) accesses
system.cpu.dcache.ReadReq_miss_rate::cpu.data     0.118565                       # miss rate for ReadReq accesses
system.cpu.dcache.ReadReq_miss_rate::total     0.118565                       # miss rate for ReadReq accesses
system.cpu.dcache.WriteReq_miss_rate::cpu.data     0.110028                       # miss rate for WriteReq accesses
system.cpu.dcache.WriteReq_miss_rate::total     0.110028                       # miss rate for WriteReq accesses
system.cpu.dcache.demand_miss_rate::cpu.data     0.114054                       # miss rate for demand accesses
system.cpu.dcache.demand_miss_rate::total     0.114054                       # miss rate for demand accesses
system.cpu.dcache.overall_miss_rate::cpu.data     0.114054                       # miss rate for overall accesses
system.cpu.dcache.overall_miss_rate::total     0.114054                       # miss rate for overall accesses
system.cpu.dcache.ReadReq_avg_miss_latency::cpu.data 53440.789474                       # average ReadReq miss latency
system.cpu.dcache.ReadReq_avg_miss_latency::total 53440.789474                       # average ReadReq miss latency
system.cpu.dcache.WriteReq_avg_miss_latency::cpu.data 52253.164557                       # average WriteReq miss latency
system.cpu.dcache.WriteReq_avg_miss_latency::total 52253.164557                       # average WriteReq miss latency
system.cpu.dcache.demand_avg_miss_latency::cpu.data 52835.483871                       # average overall miss latency
system.cpu.dcache.demand_avg_miss_latency::total 52835.483871                       # average overall miss latency
system.cpu.dcache.overall_avg_miss_latency::cpu.data 52835.483871                       # average overall miss latency
system.cpu.dcache.overall_avg_miss_latency::total 52835.483871                       # average overall miss latency
system.cpu.dcache.blocked_cycles::no_mshrs            0                       # number of cycles access was blocked
system.cpu.dcache.blocked_cycles::no_targets            0                       # number of cycles access was blocked
system.cpu.dcache.blocked::no_mshrs                 0                       # number of cycles access was blocked
system.cpu.dcache.blocked::no_targets               0                       # number of cycles access was blocked
system.cpu.dcache.avg_blocked_cycles::no_mshrs          nan                       # average number of cycles each access was blocked
system.cpu.dcache.avg_blocked_cycles::no_targets          nan                       # average number of cycles each access was blocked
system.cpu.dcache.fast_writes                       0                       # number of fast writes performed
system.cpu.dcache.cache_copies                      0                       # number of cache copies performed
system.cpu.dcache.writebacks::writebacks           13                       # number of writebacks
system.cpu.dcache.writebacks::total                13                       # number of writebacks
system.cpu.dcache.ReadReq_mshr_misses::cpu.data           76                       # number of ReadReq MSHR misses
system.cpu.dcache.ReadReq_mshr_misses::total           76                       # number of ReadReq MSHR misses
system.cpu.dcache.WriteReq_mshr_misses::cpu.data           79                       # number of WriteReq MSHR misses
system.cpu.dcache.WriteReq_mshr_misses::total           79                       # number of WriteReq MSHR misses
system.cpu.dcache.demand_mshr_misses::cpu.data          155                       # number of demand (read+write) MSHR misses
system.cpu.dcache.demand_mshr_misses::total          155                       # number of demand (read+write) MSHR misses
system.cpu.dcache.overall_mshr_misses::cpu.data          155                       # number of overall MSHR misses
system.cpu.dcache.overall_mshr_misses::total          155                       # number of overall MSHR misses
system.cpu.dcache.ReadReq_mshr_miss_latency::cpu.data      3909500                       # number of ReadReq MSHR miss cycles
system.cpu.dcache.ReadReq_mshr_miss_latency::total      3909500                       # number of ReadReq MSHR miss cycles
system.cpu.dcache.WriteReq_mshr_miss_latency::cpu.data      3970000                       # number of WriteReq MSHR miss cycles
system.cpu.dcache.WriteReq_mshr_miss_latency::total      3970000                       # number of WriteReq MSHR miss cycles
system.cpu.dcache.demand_mshr_miss_latency::cpu.data      7879500                       # number of demand (read+write) MSHR miss cycles
system.cpu.dcache.demand_mshr_miss_latency::total      7879500                       # number of demand (read+write) MSHR miss cycles
system.cpu.dcache.overall_mshr_miss_latency::cpu.data      7879500                       # number of overall MSHR miss cycles
system.cpu.dcache.overall_mshr_miss_latency::total      7879500                       # number of overall MSHR miss cycles
system.cpu.dcache.ReadReq_mshr_miss_rate::cpu.data     0.118565                       # mshr miss rate for ReadReq accesses
system.cpu.dcache.ReadReq_mshr_miss_rate::total     0.118565                       # mshr miss rate for ReadReq accesses
system.cpu.dcache.WriteReq_mshr_miss_rate::cpu.data     0.110028                       # mshr miss rate for WriteReq accesses
system.cpu.dcache.WriteReq_mshr_miss_rate::total     0.110028                       # mshr miss rate for WriteReq accesses
system.cpu.dcache.demand_mshr_miss_rate::cpu.data     0.114054                       # mshr miss rate for demand accesses
system.cpu.dcache.demand_mshr_miss_rate::total     0.114054                       # mshr miss rate for demand accesses
system.cpu.dcache.overall_mshr_miss_rate::cpu.data     0.114054                       # mshr miss rate for overall accesses
system.cpu.dcache.overall_mshr_miss_rate::total     0.114054                       # mshr miss rate for overall accesses
system.cpu.dcache.ReadReq_avg_mshr_miss_latency::cpu.data 51440.789474                       # average ReadReq mshr miss latency
system.cpu.dcache.ReadReq_avg_mshr_miss_latency::total 51440.789474                       # average ReadReq mshr miss latency
system.cpu.dcache.WriteReq_avg_mshr_miss_latency::cpu.data 50253.164557                       # average WriteReq mshr miss latency
system.cpu.dcache.WriteReq_avg_mshr_miss_latency::total 50253.164557                       # average WriteReq mshr miss latency
system.cpu.dcache.demand_avg_mshr_miss_latency::cpu.data 50835.483871                       # average overall mshr miss latency
system.cpu.dcache.demand_avg_mshr_miss_latency::total 50835.483871                       # average overall mshr miss latency
system.cpu.dcache.overall_avg_mshr_miss_latency::cpu.data 50835.483871                       # average overall mshr miss latency
system.cpu.dcache.overall_avg_mshr_miss_latency::total 50835.483871                       # average overall mshr miss latency
system.cpu.dcache.no_allocate_misses                0                       # Number of misses that were no-allocate

---------- End Simulation Statistics   ----------
