
---------- Begin Simulation Statistics ----------
sim_seconds                                  0.186618                       # Number of seconds simulated
sim_ticks                                186617713500                       # Number of ticks simulated
final_tick                               883301399500                       # Number of ticks from beginning of simulation (restored from checkpoints and never reset)
sim_freq                                 1000000000000                       # Frequency of simulated ticks
host_inst_rate                                  57958                       # Simulator instruction rate (inst/s)
host_op_rate                                    69548                       # Simulator op (including micro ops) rate (op/s)
host_tick_rate                              108159416                       # Simulator tick rate (ticks/s)
host_mem_usage                                2362984                       # Number of bytes of host memory used
host_seconds                                  1725.40                       # Real time elapsed on the host
sim_insts                                   100000000                       # Number of instructions simulated
sim_ops                                     119997631                       # Number of ops (including micro ops) simulated
system.physmem.bytes_read::cpu.inst              2048                       # Number of bytes read from this memory
system.physmem.bytes_read::cpu.data         192147072                       # Number of bytes read from this memory
system.physmem.bytes_read::total            192149120                       # Number of bytes read from this memory
system.physmem.bytes_inst_read::cpu.inst         2048                       # Number of instructions bytes read from this memory
system.physmem.bytes_inst_read::total            2048                       # Number of instructions bytes read from this memory
system.physmem.bytes_written::writebacks    143331584                       # Number of bytes written to this memory
system.physmem.bytes_written::total         143331584                       # Number of bytes written to this memory
system.physmem.num_reads::cpu.inst                 32                       # Number of read requests responded to by this memory
system.physmem.num_reads::cpu.data            3002298                       # Number of read requests responded to by this memory
system.physmem.num_reads::total               3002330                       # Number of read requests responded to by this memory
system.physmem.num_writes::writebacks         2239556                       # Number of write requests responded to by this memory
system.physmem.num_writes::total              2239556                       # Number of write requests responded to by this memory
system.physmem.bw_read::cpu.inst                10974                       # Total read bandwidth from this memory (bytes/s)
system.physmem.bw_read::cpu.data           1029629334                       # Total read bandwidth from this memory (bytes/s)
system.physmem.bw_read::total              1029640308                       # Total read bandwidth from this memory (bytes/s)
system.physmem.bw_inst_read::cpu.inst           10974                       # Instruction read bandwidth from this memory (bytes/s)
system.physmem.bw_inst_read::total              10974                       # Instruction read bandwidth from this memory (bytes/s)
system.physmem.bw_write::writebacks         768049192                       # Write bandwidth from this memory (bytes/s)
system.physmem.bw_write::total              768049192                       # Write bandwidth from this memory (bytes/s)
system.physmem.bw_total::writebacks         768049192                       # Total bandwidth to/from this memory (bytes/s)
system.physmem.bw_total::cpu.inst               10974                       # Total bandwidth to/from this memory (bytes/s)
system.physmem.bw_total::cpu.data          1029629334                       # Total bandwidth to/from this memory (bytes/s)
system.physmem.bw_total::total             1797689500                       # Total bandwidth to/from this memory (bytes/s)
system.l2.replacements                        2985946                       # number of replacements
system.l2.tagsinuse                      15903.584581                       # Cycle average of tags in use
system.l2.total_refs                          1839316                       # Total number of references to valid blocks.
system.l2.sampled_refs                        3001893                       # Sample count of references to valid blocks.
system.l2.avg_refs                           0.612719                       # Average number of references to valid blocks.
system.l2.warmup_cycle                              0                       # Cycle when the warmup percentage was hit.
system.l2.occ_blocks::writebacks         11882.166042                       # Average occupied blocks per requestor
system.l2.occ_blocks::cpu.inst               0.161536                       # Average occupied blocks per requestor
system.l2.occ_blocks::cpu.data            4021.257004                       # Average occupied blocks per requestor
system.l2.occ_percent::writebacks            0.725230                       # Average percentage of cache occupancy
system.l2.occ_percent::cpu.inst              0.000010                       # Average percentage of cache occupancy
system.l2.occ_percent::cpu.data              0.245438                       # Average percentage of cache occupancy
system.l2.occ_percent::total                 0.970678                       # Average percentage of cache occupancy
system.l2.ReadReq_hits::cpu.data                17189                       # number of ReadReq hits
system.l2.ReadReq_hits::total                   17189                       # number of ReadReq hits
system.l2.Writeback_hits::writebacks          4073953                       # number of Writeback hits
system.l2.Writeback_hits::total               4073953                       # number of Writeback hits
system.l2.ReadExReq_hits::cpu.data            1820279                       # number of ReadExReq hits
system.l2.ReadExReq_hits::total               1820279                       # number of ReadExReq hits
system.l2.demand_hits::cpu.data               1837468                       # number of demand (read+write) hits
system.l2.demand_hits::total                  1837468                       # number of demand (read+write) hits
system.l2.overall_hits::cpu.data              1837468                       # number of overall hits
system.l2.overall_hits::total                 1837468                       # number of overall hits
system.l2.ReadReq_misses::cpu.inst                 32                       # number of ReadReq misses
system.l2.ReadReq_misses::cpu.data             750392                       # number of ReadReq misses
system.l2.ReadReq_misses::total                750424                       # number of ReadReq misses
system.l2.ReadExReq_misses::cpu.data          2251906                       # number of ReadExReq misses
system.l2.ReadExReq_misses::total             2251906                       # number of ReadExReq misses
system.l2.demand_misses::cpu.inst                  32                       # number of demand (read+write) misses
system.l2.demand_misses::cpu.data             3002298                       # number of demand (read+write) misses
system.l2.demand_misses::total                3002330                       # number of demand (read+write) misses
system.l2.overall_misses::cpu.inst                 32                       # number of overall misses
system.l2.overall_misses::cpu.data            3002298                       # number of overall misses
system.l2.overall_misses::total               3002330                       # number of overall misses
system.l2.ReadReq_miss_latency::cpu.inst      1710500                       # number of ReadReq miss cycles
system.l2.ReadReq_miss_latency::cpu.data  40253975000                       # number of ReadReq miss cycles
system.l2.ReadReq_miss_latency::total     40255685500                       # number of ReadReq miss cycles
system.l2.ReadExReq_miss_latency::cpu.data 117580414000                       # number of ReadExReq miss cycles
system.l2.ReadExReq_miss_latency::total  117580414000                       # number of ReadExReq miss cycles
system.l2.demand_miss_latency::cpu.inst       1710500                       # number of demand (read+write) miss cycles
system.l2.demand_miss_latency::cpu.data  157834389000                       # number of demand (read+write) miss cycles
system.l2.demand_miss_latency::total     157836099500                       # number of demand (read+write) miss cycles
system.l2.overall_miss_latency::cpu.inst      1710500                       # number of overall miss cycles
system.l2.overall_miss_latency::cpu.data 157834389000                       # number of overall miss cycles
system.l2.overall_miss_latency::total    157836099500                       # number of overall miss cycles
system.l2.ReadReq_accesses::cpu.inst               32                       # number of ReadReq accesses(hits+misses)
system.l2.ReadReq_accesses::cpu.data           767581                       # number of ReadReq accesses(hits+misses)
system.l2.ReadReq_accesses::total              767613                       # number of ReadReq accesses(hits+misses)
system.l2.Writeback_accesses::writebacks      4073953                       # number of Writeback accesses(hits+misses)
system.l2.Writeback_accesses::total           4073953                       # number of Writeback accesses(hits+misses)
system.l2.ReadExReq_accesses::cpu.data        4072185                       # number of ReadExReq accesses(hits+misses)
system.l2.ReadExReq_accesses::total           4072185                       # number of ReadExReq accesses(hits+misses)
system.l2.demand_accesses::cpu.inst                32                       # number of demand (read+write) accesses
system.l2.demand_accesses::cpu.data           4839766                       # number of demand (read+write) accesses
system.l2.demand_accesses::total              4839798                       # number of demand (read+write) accesses
system.l2.overall_accesses::cpu.inst               32                       # number of overall (read+write) accesses
system.l2.overall_accesses::cpu.data          4839766                       # number of overall (read+write) accesses
system.l2.overall_accesses::total             4839798                       # number of overall (read+write) accesses
system.l2.ReadReq_miss_rate::cpu.inst               1                       # miss rate for ReadReq accesses
system.l2.ReadReq_miss_rate::cpu.data        0.977606                       # miss rate for ReadReq accesses
system.l2.ReadReq_miss_rate::total           0.977607                       # miss rate for ReadReq accesses
system.l2.ReadExReq_miss_rate::cpu.data      0.552997                       # miss rate for ReadExReq accesses
system.l2.ReadExReq_miss_rate::total         0.552997                       # miss rate for ReadExReq accesses
system.l2.demand_miss_rate::cpu.inst                1                       # miss rate for demand accesses
system.l2.demand_miss_rate::cpu.data         0.620339                       # miss rate for demand accesses
system.l2.demand_miss_rate::total            0.620342                       # miss rate for demand accesses
system.l2.overall_miss_rate::cpu.inst               1                       # miss rate for overall accesses
system.l2.overall_miss_rate::cpu.data        0.620339                       # miss rate for overall accesses
system.l2.overall_miss_rate::total           0.620342                       # miss rate for overall accesses
system.l2.ReadReq_avg_miss_latency::cpu.inst 53453.125000                       # average ReadReq miss latency
system.l2.ReadReq_avg_miss_latency::cpu.data 53643.928773                       # average ReadReq miss latency
system.l2.ReadReq_avg_miss_latency::total 53643.920637                       # average ReadReq miss latency
system.l2.ReadExReq_avg_miss_latency::cpu.data 52213.730946                       # average ReadExReq miss latency
system.l2.ReadExReq_avg_miss_latency::total 52213.730946                       # average ReadExReq miss latency
system.l2.demand_avg_miss_latency::cpu.inst 53453.125000                       # average overall miss latency
system.l2.demand_avg_miss_latency::cpu.data 52571.193466                       # average overall miss latency
system.l2.demand_avg_miss_latency::total 52571.202866                       # average overall miss latency
system.l2.overall_avg_miss_latency::cpu.inst 53453.125000                       # average overall miss latency
system.l2.overall_avg_miss_latency::cpu.data 52571.193466                       # average overall miss latency
system.l2.overall_avg_miss_latency::total 52571.202866                       # average overall miss latency
system.l2.blocked_cycles::no_mshrs                  0                       # number of cycles access was blocked
system.l2.blocked_cycles::no_targets                0                       # number of cycles access was blocked
system.l2.blocked::no_mshrs                         0                       # number of cycles access was blocked
system.l2.blocked::no_targets                       0                       # number of cycles access was blocked
system.l2.avg_blocked_cycles::no_mshrs            nan                       # average number of cycles each access was blocked
system.l2.avg_blocked_cycles::no_targets          nan                       # average number of cycles each access was blocked
system.l2.fast_writes                               0                       # number of fast writes performed
system.l2.cache_copies                              0                       # number of cache copies performed
system.l2.writebacks::writebacks              2239556                       # number of writebacks
system.l2.writebacks::total                   2239556                       # number of writebacks
system.l2.ReadReq_mshr_misses::cpu.inst            32                       # number of ReadReq MSHR misses
system.l2.ReadReq_mshr_misses::cpu.data        750392                       # number of ReadReq MSHR misses
system.l2.ReadReq_mshr_misses::total           750424                       # number of ReadReq MSHR misses
system.l2.ReadExReq_mshr_misses::cpu.data      2251906                       # number of ReadExReq MSHR misses
system.l2.ReadExReq_mshr_misses::total        2251906                       # number of ReadExReq MSHR misses
system.l2.demand_mshr_misses::cpu.inst             32                       # number of demand (read+write) MSHR misses
system.l2.demand_mshr_misses::cpu.data        3002298                       # number of demand (read+write) MSHR misses
system.l2.demand_mshr_misses::total           3002330                       # number of demand (read+write) MSHR misses
system.l2.overall_mshr_misses::cpu.inst            32                       # number of overall MSHR misses
system.l2.overall_mshr_misses::cpu.data       3002298                       # number of overall MSHR misses
system.l2.overall_mshr_misses::total          3002330                       # number of overall MSHR misses
system.l2.ReadReq_mshr_miss_latency::cpu.inst      1318000                       # number of ReadReq MSHR miss cycles
system.l2.ReadReq_mshr_miss_latency::cpu.data  31097369500                       # number of ReadReq MSHR miss cycles
system.l2.ReadReq_mshr_miss_latency::total  31098687500                       # number of ReadReq MSHR miss cycles
system.l2.ReadExReq_mshr_miss_latency::cpu.data  90414904500                       # number of ReadExReq MSHR miss cycles
system.l2.ReadExReq_mshr_miss_latency::total  90414904500                       # number of ReadExReq MSHR miss cycles
system.l2.demand_mshr_miss_latency::cpu.inst      1318000                       # number of demand (read+write) MSHR miss cycles
system.l2.demand_mshr_miss_latency::cpu.data 121512274000                       # number of demand (read+write) MSHR miss cycles
system.l2.demand_mshr_miss_latency::total 121513592000                       # number of demand (read+write) MSHR miss cycles
system.l2.overall_mshr_miss_latency::cpu.inst      1318000                       # number of overall MSHR miss cycles
system.l2.overall_mshr_miss_latency::cpu.data 121512274000                       # number of overall MSHR miss cycles
system.l2.overall_mshr_miss_latency::total 121513592000                       # number of overall MSHR miss cycles
system.l2.ReadReq_mshr_miss_rate::cpu.inst            1                       # mshr miss rate for ReadReq accesses
system.l2.ReadReq_mshr_miss_rate::cpu.data     0.977606                       # mshr miss rate for ReadReq accesses
system.l2.ReadReq_mshr_miss_rate::total      0.977607                       # mshr miss rate for ReadReq accesses
system.l2.ReadExReq_mshr_miss_rate::cpu.data     0.552997                       # mshr miss rate for ReadExReq accesses
system.l2.ReadExReq_mshr_miss_rate::total     0.552997                       # mshr miss rate for ReadExReq accesses
system.l2.demand_mshr_miss_rate::cpu.inst            1                       # mshr miss rate for demand accesses
system.l2.demand_mshr_miss_rate::cpu.data     0.620339                       # mshr miss rate for demand accesses
system.l2.demand_mshr_miss_rate::total       0.620342                       # mshr miss rate for demand accesses
system.l2.overall_mshr_miss_rate::cpu.inst            1                       # mshr miss rate for overall accesses
system.l2.overall_mshr_miss_rate::cpu.data     0.620339                       # mshr miss rate for overall accesses
system.l2.overall_mshr_miss_rate::total      0.620342                       # mshr miss rate for overall accesses
system.l2.ReadReq_avg_mshr_miss_latency::cpu.inst 41187.500000                       # average ReadReq mshr miss latency
system.l2.ReadReq_avg_mshr_miss_latency::cpu.data 41441.499243                       # average ReadReq mshr miss latency
system.l2.ReadReq_avg_mshr_miss_latency::total 41441.488412                       # average ReadReq mshr miss latency
system.l2.ReadExReq_avg_mshr_miss_latency::cpu.data 40150.390158                       # average ReadExReq mshr miss latency
system.l2.ReadExReq_avg_mshr_miss_latency::total 40150.390158                       # average ReadExReq mshr miss latency
system.l2.demand_avg_mshr_miss_latency::cpu.inst 41187.500000                       # average overall mshr miss latency
system.l2.demand_avg_mshr_miss_latency::cpu.data 40473.088947                       # average overall mshr miss latency
system.l2.demand_avg_mshr_miss_latency::total 40473.096562                       # average overall mshr miss latency
system.l2.overall_avg_mshr_miss_latency::cpu.inst 41187.500000                       # average overall mshr miss latency
system.l2.overall_avg_mshr_miss_latency::cpu.data 40473.088947                       # average overall mshr miss latency
system.l2.overall_avg_mshr_miss_latency::total 40473.096562                       # average overall mshr miss latency
system.l2.no_allocate_misses                        0                       # Number of misses that were no-allocate
system.cpu.branchPred.lookups                 1176848                       # Number of BP lookups
system.cpu.branchPred.condPredicted           1176848                       # Number of conditional branches predicted
system.cpu.branchPred.condIncorrect              3016                       # Number of conditional branches incorrect
system.cpu.branchPred.BTBLookups               297198                       # Number of BTB lookups
system.cpu.branchPred.BTBHits                  297198                       # Number of BTB hits
system.cpu.branchPred.BTBCorrect                    0                       # Number of correct BTB predictions (this stat may not work properly.
system.cpu.branchPred.BTBHitPct            100.000000                       # BTB Hit Percentage
system.cpu.branchPred.usedRAS                       0                       # Number of times the RAS was used to get a target.
system.cpu.branchPred.RASInCorrect                  0                       # Number of incorrect RAS predictions.
system.cpu.workload.num_syscalls                    0                       # Number of system calls
system.cpu.numCycles                        373235427                       # number of cpu cycles simulated
system.cpu.numWorkItemsStarted                      0                       # number of work items this cpu started
system.cpu.numWorkItemsCompleted                    0                       # number of work items this cpu completed
system.cpu.fetch.icacheStallCycles            8424487                       # Number of cycles fetch is stalled on an Icache miss
system.cpu.fetch.Insts                      100009077                       # Number of instructions fetch has processed
system.cpu.fetch.Branches                     1176848                       # Number of branches that fetch encountered
system.cpu.fetch.predictedBranches             297198                       # Number of branches that fetch has predicted taken
system.cpu.fetch.Cycles                      66100118                       # Number of cycles fetch has run and was not squashing or blocked
system.cpu.fetch.SquashCycles                    6032                       # Number of cycles fetch has spent squashing
system.cpu.fetch.BlockedCycles              298653525                       # Number of cycles fetch has spent blocked
system.cpu.fetch.CacheLines                   8419325                       # Number of cache lines fetched
system.cpu.fetch.rateDist::samples          373181146                       # Number of instructions fetched each cycle (Total)
system.cpu.fetch.rateDist::mean              0.321586                       # Number of instructions fetched each cycle (Total)
system.cpu.fetch.rateDist::stdev             0.727260                       # Number of instructions fetched each cycle (Total)
system.cpu.fetch.rateDist::underflows               0      0.00%      0.00% # Number of instructions fetched each cycle (Total)
system.cpu.fetch.rateDist::0                311152467     83.38%     83.38% # Number of instructions fetched each cycle (Total)
system.cpu.fetch.rateDist::1                  4047663      1.08%     84.46% # Number of instructions fetched each cycle (Total)
system.cpu.fetch.rateDist::2                 57981016     15.54%    100.00% # Number of instructions fetched each cycle (Total)
system.cpu.fetch.rateDist::overflows                0      0.00%    100.00% # Number of instructions fetched each cycle (Total)
system.cpu.fetch.rateDist::min_value                0                       # Number of instructions fetched each cycle (Total)
system.cpu.fetch.rateDist::max_value                2                       # Number of instructions fetched each cycle (Total)
system.cpu.fetch.rateDist::total            373181146                       # Number of instructions fetched each cycle (Total)
system.cpu.fetch.branchRate                  0.003153                       # Number of branch fetches per cycle
system.cpu.fetch.rate                        0.267952                       # Number of inst fetches per cycle
system.cpu.decode.IdleCycles                 55042212                       # Number of cycles decode is idle
system.cpu.decode.BlockedCycles             256107245                       # Number of cycles decode is blocked
system.cpu.decode.RunCycles                  43571915                       # Number of cycles decode is running
system.cpu.decode.UnblockCycles              18456755                       # Number of cycles decode is unblocking
system.cpu.decode.SquashCycles                   3016                       # Number of cycles decode is squashing
system.cpu.decode.DecodedInsts              120009683                       # Number of instructions handled by decode
system.cpu.rename.SquashCycles                   3016                       # Number of cycles rename is squashing
system.cpu.rename.IdleCycles                 71057922                       # Number of cycles rename is idle
system.cpu.rename.BlockCycles               209127313                       # Number of cycles rename is blocking
system.cpu.rename.serializeStallCycles              0                       # count of cycles rename stalled for serializing inst
system.cpu.rename.RunCycles                  29169926                       # Number of cycles rename is running
system.cpu.rename.UnblockCycles              63822968                       # Number of cycles rename is unblocking
system.cpu.rename.RenamedInsts              120003668                       # Number of instructions processed by rename
system.cpu.rename.IQFullEvents               42197212                       # Number of times rename has blocked due to IQ full
system.cpu.rename.LSQFullEvents                110803                       # Number of times rename has blocked due to LSQ full
system.cpu.rename.RenamedOperands           112666151                       # Number of destination operands rename has renamed
system.cpu.rename.RenameLookups             336964168                       # Number of register rename lookups that rename has made
system.cpu.rename.int_rename_lookups         17412002                       # Number of integer rename lookups
system.cpu.rename.fp_rename_lookups         319552166                       # Number of floating rename lookups
system.cpu.rename.CommittedMaps             112660144                       # Number of HB maps that are committed
system.cpu.rename.UndoneMaps                     6006                       # Number of HB maps that are undone due to squashing
system.cpu.rename.serializingInsts                  0                       # count of serializing insts renamed
system.cpu.rename.tempSerializingInsts              0                       # count of temporary serializing insts renamed
system.cpu.rename.skidInsts                  76676440                       # count of insts added to the skid buffer
system.cpu.memDep0.insertedLoads             18689954                       # Number of loads inserted to the mem dependence unit.
system.cpu.memDep0.insertedStores             9738749                       # Number of stores inserted to the mem dependence unit.
system.cpu.memDep0.conflictingLoads                 0                       # Number of conflicting loads.
system.cpu.memDep0.conflictingStores                0                       # Number of conflicting stores.
system.cpu.iq.iqInstsAdded                  120000648                       # Number of instructions added to the IQ (excludes non-spec)
system.cpu.iq.iqInstsIssued                 120000648                       # Number of instructions issued
system.cpu.iq.iqSquashedInstsExamined            3009                       # Number of squashed instructions iterated over during squash; mainly for profiling
system.cpu.iq.iqSquashedOperandsExamined         9057                       # Number of squashed operands that are examined and possibly removed from graph
system.cpu.iq.issued_per_cycle::samples     373181146                       # Number of insts issued each cycle
system.cpu.iq.issued_per_cycle::mean         0.321561                       # Number of insts issued each cycle
system.cpu.iq.issued_per_cycle::stdev        0.502373                       # Number of insts issued each cycle
system.cpu.iq.issued_per_cycle::underflows            0      0.00%      0.00% # Number of insts issued each cycle
system.cpu.iq.issued_per_cycle::0           259565496     69.55%     69.55% # Number of insts issued each cycle
system.cpu.iq.issued_per_cycle::1           107230652     28.73%     98.29% # Number of insts issued each cycle
system.cpu.iq.issued_per_cycle::2             6384998      1.71%    100.00% # Number of insts issued each cycle
system.cpu.iq.issued_per_cycle::overflows            0      0.00%    100.00% # Number of insts issued each cycle
system.cpu.iq.issued_per_cycle::min_value            0                       # Number of insts issued each cycle
system.cpu.iq.issued_per_cycle::max_value            2                       # Number of insts issued each cycle
system.cpu.iq.issued_per_cycle::total       373181146                       # Number of insts issued each cycle
system.cpu.iq.fu_full::No_OpClass                   0      0.00%      0.00% # attempts to use FU when none available
system.cpu.iq.fu_full::IntAlu                  171676      1.92%      1.92% # attempts to use FU when none available
system.cpu.iq.fu_full::IntMult                      0      0.00%      1.92% # attempts to use FU when none available
system.cpu.iq.fu_full::IntDiv                       0      0.00%      1.92% # attempts to use FU when none available
system.cpu.iq.fu_full::FloatAdd               8771250     98.08%    100.00% # attempts to use FU when none available
system.cpu.iq.fu_full::FloatCmp                     0      0.00%    100.00% # attempts to use FU when none available
system.cpu.iq.fu_full::FloatCvt                     0      0.00%    100.00% # attempts to use FU when none available
system.cpu.iq.fu_full::FloatMult                    0      0.00%    100.00% # attempts to use FU when none available
system.cpu.iq.fu_full::FloatDiv                     0      0.00%    100.00% # attempts to use FU when none available
system.cpu.iq.fu_full::FloatSqrt                    0      0.00%    100.00% # attempts to use FU when none available
system.cpu.iq.fu_full::SimdAdd                      0      0.00%    100.00% # attempts to use FU when none available
system.cpu.iq.fu_full::SimdAddAcc                   0      0.00%    100.00% # attempts to use FU when none available
system.cpu.iq.fu_full::SimdAlu                      0      0.00%    100.00% # attempts to use FU when none available
system.cpu.iq.fu_full::SimdCmp                      0      0.00%    100.00% # attempts to use FU when none available
system.cpu.iq.fu_full::SimdCvt                      0      0.00%    100.00% # attempts to use FU when none available
system.cpu.iq.fu_full::SimdMisc                     0      0.00%    100.00% # attempts to use FU when none available
system.cpu.iq.fu_full::SimdMult                     0      0.00%    100.00% # attempts to use FU when none available
system.cpu.iq.fu_full::SimdMultAcc                  0      0.00%    100.00% # attempts to use FU when none available
system.cpu.iq.fu_full::SimdShift                    0      0.00%    100.00% # attempts to use FU when none available
system.cpu.iq.fu_full::SimdShiftAcc                 0      0.00%    100.00% # attempts to use FU when none available
system.cpu.iq.fu_full::SimdSqrt                     0      0.00%    100.00% # attempts to use FU when none available
system.cpu.iq.fu_full::SimdFloatAdd                 0      0.00%    100.00% # attempts to use FU when none available
system.cpu.iq.fu_full::SimdFloatAlu                 0      0.00%    100.00% # attempts to use FU when none available
system.cpu.iq.fu_full::SimdFloatCmp                 0      0.00%    100.00% # attempts to use FU when none available
system.cpu.iq.fu_full::SimdFloatCvt                 0      0.00%    100.00% # attempts to use FU when none available
system.cpu.iq.fu_full::SimdFloatDiv                 0      0.00%    100.00% # attempts to use FU when none available
system.cpu.iq.fu_full::SimdFloatMisc                0      0.00%    100.00% # attempts to use FU when none available
system.cpu.iq.fu_full::SimdFloatMult                0      0.00%    100.00% # attempts to use FU when none available
system.cpu.iq.fu_full::SimdFloatMultAcc             0      0.00%    100.00% # attempts to use FU when none available
system.cpu.iq.fu_full::SimdFloatSqrt                0      0.00%    100.00% # attempts to use FU when none available
system.cpu.iq.fu_full::MemRead                      0      0.00%    100.00% # attempts to use FU when none available
system.cpu.iq.fu_full::MemWrite                     0      0.00%    100.00% # attempts to use FU when none available
system.cpu.iq.fu_full::IprAccess                    0      0.00%    100.00% # attempts to use FU when none available
system.cpu.iq.fu_full::InstPrefetch                 0      0.00%    100.00% # attempts to use FU when none available
system.cpu.iq.FU_type_0::No_OpClass                 0      0.00%      0.00% # Type of FU issued
system.cpu.iq.FU_type_0::IntAlu               9703070      8.09%      8.09% # Type of FU issued
system.cpu.iq.FU_type_0::IntMult                    0      0.00%      8.09% # Type of FU issued
system.cpu.iq.FU_type_0::IntDiv                     0      0.00%      8.09% # Type of FU issued
system.cpu.iq.FU_type_0::FloatAdd            81868875     68.22%     76.31% # Type of FU issued
system.cpu.iq.FU_type_0::FloatCmp                   0      0.00%     76.31% # Type of FU issued
system.cpu.iq.FU_type_0::FloatCvt                   0      0.00%     76.31% # Type of FU issued
system.cpu.iq.FU_type_0::FloatMult                  0      0.00%     76.31% # Type of FU issued
system.cpu.iq.FU_type_0::FloatDiv                   0      0.00%     76.31% # Type of FU issued
system.cpu.iq.FU_type_0::FloatSqrt                  0      0.00%     76.31% # Type of FU issued
system.cpu.iq.FU_type_0::SimdAdd                    0      0.00%     76.31% # Type of FU issued
system.cpu.iq.FU_type_0::SimdAddAcc                 0      0.00%     76.31% # Type of FU issued
system.cpu.iq.FU_type_0::SimdAlu                    0      0.00%     76.31% # Type of FU issued
system.cpu.iq.FU_type_0::SimdCmp                    0      0.00%     76.31% # Type of FU issued
system.cpu.iq.FU_type_0::SimdCvt                    0      0.00%     76.31% # Type of FU issued
system.cpu.iq.FU_type_0::SimdMisc                   0      0.00%     76.31% # Type of FU issued
system.cpu.iq.FU_type_0::SimdMult                   0      0.00%     76.31% # Type of FU issued
system.cpu.iq.FU_type_0::SimdMultAcc                0      0.00%     76.31% # Type of FU issued
system.cpu.iq.FU_type_0::SimdShift                  0      0.00%     76.31% # Type of FU issued
system.cpu.iq.FU_type_0::SimdShiftAcc               0      0.00%     76.31% # Type of FU issued
system.cpu.iq.FU_type_0::SimdSqrt                   0      0.00%     76.31% # Type of FU issued
system.cpu.iq.FU_type_0::SimdFloatAdd               0      0.00%     76.31% # Type of FU issued
system.cpu.iq.FU_type_0::SimdFloatAlu               0      0.00%     76.31% # Type of FU issued
system.cpu.iq.FU_type_0::SimdFloatCmp               0      0.00%     76.31% # Type of FU issued
system.cpu.iq.FU_type_0::SimdFloatCvt               0      0.00%     76.31% # Type of FU issued
system.cpu.iq.FU_type_0::SimdFloatDiv               0      0.00%     76.31% # Type of FU issued
system.cpu.iq.FU_type_0::SimdFloatMisc              0      0.00%     76.31% # Type of FU issued
system.cpu.iq.FU_type_0::SimdFloatMult              0      0.00%     76.31% # Type of FU issued
system.cpu.iq.FU_type_0::SimdFloatMultAcc            0      0.00%     76.31% # Type of FU issued
system.cpu.iq.FU_type_0::SimdFloatSqrt              0      0.00%     76.31% # Type of FU issued
system.cpu.iq.FU_type_0::MemRead             18689954     15.57%     91.88% # Type of FU issued
system.cpu.iq.FU_type_0::MemWrite             9738749      8.12%    100.00% # Type of FU issued
system.cpu.iq.FU_type_0::IprAccess                  0      0.00%    100.00% # Type of FU issued
system.cpu.iq.FU_type_0::InstPrefetch               0      0.00%    100.00% # Type of FU issued
system.cpu.iq.FU_type_0::total              120000648                       # Type of FU issued
system.cpu.iq.rate                           0.321515                       # Inst issue rate
system.cpu.iq.fu_busy_cnt                     8942926                       # FU busy when requested
system.cpu.iq.fu_busy_rate                   0.074524                       # FU busy rate (busy events/executed inst)
system.cpu.iq.int_inst_queue_reads          393359270                       # Number of integer instruction queue reads
system.cpu.iq.int_inst_queue_writes          10003224                       # Number of integer instruction queue writes
system.cpu.iq.int_inst_queue_wakeup_accesses     10003221                       # Number of integer instruction queue wakeup accesses
system.cpu.iq.fp_inst_queue_reads           228766098                       # Number of floating instruction queue reads
system.cpu.iq.fp_inst_queue_writes          110000433                       # Number of floating instruction queue writes
system.cpu.iq.fp_inst_queue_wakeup_accesses    109994415                       # Number of floating instruction queue wakeup accesses
system.cpu.iq.int_alu_accesses               10174900                       # Number of integer alu accesses
system.cpu.iq.fp_alu_accesses               118768674                       # Number of floating point alu accesses
system.cpu.iew.lsq.thread0.forwLoads          1795080                       # Number of loads that had data forwarded from stores
system.cpu.iew.lsq.thread0.invAddrLoads             0                       # Number of loads ignored due to an invalid address
system.cpu.iew.lsq.thread0.squashedLoads         2979                       # Number of loads squashed
system.cpu.iew.lsq.thread0.ignoredResponses            0                       # Number of memory responses ignored because the instruction is squashed
system.cpu.iew.lsq.thread0.memOrderViolation            0                       # Number of memory ordering violations
system.cpu.iew.lsq.thread0.squashedStores           30                       # Number of stores squashed
system.cpu.iew.lsq.thread0.invAddrSwpfs             0                       # Number of software prefetches ignored due to an invalid address
system.cpu.iew.lsq.thread0.blockedLoads             0                       # Number of blocked loads due to partial load-store forwarding
system.cpu.iew.lsq.thread0.rescheduledLoads            0                       # Number of loads that were rescheduled
system.cpu.iew.lsq.thread0.cacheBlocked             0                       # Number of times an access to memory failed due to the cache being blocked
system.cpu.iew.iewIdleCycles                        0                       # Number of cycles IEW is idle
system.cpu.iew.iewSquashCycles                   3016                       # Number of cycles IEW is squashing
system.cpu.iew.iewBlockCycles               100727163                       # Number of cycles IEW is blocking
system.cpu.iew.iewUnblockCycles               5851548                       # Number of cycles IEW is unblocking
system.cpu.iew.iewDispatchedInsts           120000648                       # Number of instructions dispatched to IQ
system.cpu.iew.iewDispSquashedInsts                 7                       # Number of squashed instructions skipped by dispatch
system.cpu.iew.iewDispLoadInsts              18689954                       # Number of dispatched load instructions
system.cpu.iew.iewDispStoreInsts              9738749                       # Number of dispatched store instructions
system.cpu.iew.iewDispNonSpecInsts                  0                       # Number of dispatched non-speculative instructions
system.cpu.iew.iewIQFullEvents                2736656                       # Number of times the IQ has become full, causing a stall
system.cpu.iew.iewLSQFullEvents                     0                       # Number of times the LSQ has become full, causing a stall
system.cpu.iew.memOrderViolationEvents              0                       # Number of memory order violations
system.cpu.iew.predictedTakenIncorrect             30                       # Number of branches that were predicted taken incorrectly
system.cpu.iew.predictedNotTakenIncorrect         2986                       # Number of branches that were predicted not taken incorrectly
system.cpu.iew.branchMispredicts                 3016                       # Number of branch mispredicts detected at execute
system.cpu.iew.iewExecutedInsts             119997636                       # Number of executed instructions
system.cpu.iew.iewExecLoadInsts              18686975                       # Number of load instructions executed
system.cpu.iew.iewExecSquashedInsts              3012                       # Number of squashed instructions skipped in execute
system.cpu.iew.exec_swp                             0                       # number of swp insts executed
system.cpu.iew.exec_nop                             0                       # number of nop insts executed
system.cpu.iew.exec_refs                     28425694                       # number of memory reference insts executed
system.cpu.iew.exec_branches                  1176848                       # Number of branches executed
system.cpu.iew.exec_stores                    9738719                       # Number of stores executed
system.cpu.iew.exec_rate                     0.321507                       # Inst execution rate
system.cpu.iew.wb_sent                      119997636                       # cumulative count of insts sent to commit
system.cpu.iew.wb_count                     119997636                       # cumulative count of insts written-back
system.cpu.iew.wb_producers                  25224329                       # num instructions producing a value
system.cpu.iew.wb_consumers                  41208017                       # num instructions consuming a value
system.cpu.iew.wb_penalized                         0                       # number of instrctions required to write to 'other' IQ
system.cpu.iew.wb_rate                       0.321507                       # insts written-back per cycle
system.cpu.iew.wb_fanout                     0.612122                       # average fanout of values written-back
system.cpu.iew.wb_penalized_rate                    0                       # fraction of instructions written-back that wrote to 'other' IQ
system.cpu.commit.commitSquashedInsts            3016                       # The number of squashed insts skipped by commit
system.cpu.commit.branchMispredicts              3016                       # The number of times a branch was mispredicted
system.cpu.commit.committed_per_cycle::samples    373178130                       # Number of insts commited each cycle
system.cpu.commit.committed_per_cycle::mean     0.321556                       # Number of insts commited each cycle
system.cpu.commit.committed_per_cycle::stdev     0.499250                       # Number of insts commited each cycle
system.cpu.commit.committed_per_cycle::underflows            0      0.00%      0.00% # Number of insts commited each cycle
system.cpu.commit.committed_per_cycle::0    258982085     69.40%     69.40% # Number of insts commited each cycle
system.cpu.commit.committed_per_cycle::1    108394459     29.05%     98.45% # Number of insts commited each cycle
system.cpu.commit.committed_per_cycle::2      5801586      1.55%    100.00% # Number of insts commited each cycle
system.cpu.commit.committed_per_cycle::overflows            0      0.00%    100.00% # Number of insts commited each cycle
system.cpu.commit.committed_per_cycle::min_value            0                       # Number of insts commited each cycle
system.cpu.commit.committed_per_cycle::max_value            2                       # Number of insts commited each cycle
system.cpu.commit.committed_per_cycle::total    373178130                       # Number of insts commited each cycle
system.cpu.commit.committedInsts            100000000                       # Number of instructions committed
system.cpu.commit.committedOps              119997631                       # Number of ops (including micro ops) committed
system.cpu.commit.swp_count                         0                       # Number of s/w prefetches committed
system.cpu.commit.refs                       28425693                       # Number of memory references committed
system.cpu.commit.loads                      18686975                       # Number of loads committed
system.cpu.commit.membars                           0                       # Number of memory barriers committed
system.cpu.commit.branches                    1176848                       # Number of branches committed
system.cpu.commit.fp_insts                  109994414                       # Number of committed floating point instructions.
system.cpu.commit.int_insts                  38128756                       # Number of committed integer instructions.
system.cpu.commit.function_calls                    0                       # Number of function calls committed.
system.cpu.commit.bw_lim_events               5801586                       # number cycles where commit BW limit reached
system.cpu.commit.bw_limited                        0                       # number of insts not committed due to BW limits
system.cpu.rob.rob_reads                    487377191                       # The number of ROB reads
system.cpu.rob.rob_writes                   240004311                       # The number of ROB writes
system.cpu.timesIdled                            5492                       # Number of times that the entire CPU went into an idle state and unscheduled itself
system.cpu.idleCycles                           54281                       # Total number of cycles that the CPU has spent unscheduled due to idling
system.cpu.committedInsts                   100000000                       # Number of Instructions Simulated
system.cpu.committedOps                     119997631                       # Number of Ops (including micro ops) Simulated
system.cpu.committedInsts_total             100000000                       # Number of Instructions Simulated
system.cpu.cpi                               3.732354                       # CPI: Cycles Per Instruction
system.cpu.cpi_total                         3.732354                       # CPI: Total CPI of All Threads
system.cpu.ipc                               0.267927                       # IPC: Instructions Per Cycle
system.cpu.ipc_total                         0.267927                       # IPC: Total IPC of All Threads
system.cpu.int_regfile_reads                 68414786                       # number of integer regfile reads
system.cpu.int_regfile_writes                12404453                       # number of integer regfile writes
system.cpu.fp_regfile_reads                 235166378                       # number of floating regfile reads
system.cpu.fp_regfile_writes                100255696                       # number of floating regfile writes
system.cpu.misc_regfile_reads                33373833                       # number of misc regfile reads
system.cpu.itb_walker_cache.replacements            0                       # number of replacements
system.cpu.itb_walker_cache.tagsinuse               0                       # Cycle average of tags in use
system.cpu.itb_walker_cache.total_refs              0                       # Total number of references to valid blocks.
system.cpu.itb_walker_cache.sampled_refs            0                       # Sample count of references to valid blocks.
system.cpu.itb_walker_cache.avg_refs              nan                       # Average number of references to valid blocks.
system.cpu.itb_walker_cache.warmup_cycle            0                       # Cycle when the warmup percentage was hit.
system.cpu.itb_walker_cache.blocked_cycles::no_mshrs            0                       # number of cycles access was blocked
system.cpu.itb_walker_cache.blocked_cycles::no_targets            0                       # number of cycles access was blocked
system.cpu.itb_walker_cache.blocked::no_mshrs            0                       # number of cycles access was blocked
system.cpu.itb_walker_cache.blocked::no_targets            0                       # number of cycles access was blocked
system.cpu.itb_walker_cache.avg_blocked_cycles::no_mshrs          nan                       # average number of cycles each access was blocked
system.cpu.itb_walker_cache.avg_blocked_cycles::no_targets          nan                       # average number of cycles each access was blocked
system.cpu.itb_walker_cache.fast_writes             0                       # number of fast writes performed
system.cpu.itb_walker_cache.cache_copies            0                       # number of cache copies performed
system.cpu.itb_walker_cache.no_allocate_misses            0                       # Number of misses that were no-allocate
system.cpu.dtb_walker_cache.replacements            0                       # number of replacements
system.cpu.dtb_walker_cache.tagsinuse               0                       # Cycle average of tags in use
system.cpu.dtb_walker_cache.total_refs              0                       # Total number of references to valid blocks.
system.cpu.dtb_walker_cache.sampled_refs            0                       # Sample count of references to valid blocks.
system.cpu.dtb_walker_cache.avg_refs              nan                       # Average number of references to valid blocks.
system.cpu.dtb_walker_cache.warmup_cycle            0                       # Cycle when the warmup percentage was hit.
system.cpu.dtb_walker_cache.blocked_cycles::no_mshrs            0                       # number of cycles access was blocked
system.cpu.dtb_walker_cache.blocked_cycles::no_targets            0                       # number of cycles access was blocked
system.cpu.dtb_walker_cache.blocked::no_mshrs            0                       # number of cycles access was blocked
system.cpu.dtb_walker_cache.blocked::no_targets            0                       # number of cycles access was blocked
system.cpu.dtb_walker_cache.avg_blocked_cycles::no_mshrs          nan                       # average number of cycles each access was blocked
system.cpu.dtb_walker_cache.avg_blocked_cycles::no_targets          nan                       # average number of cycles each access was blocked
system.cpu.dtb_walker_cache.fast_writes             0                       # number of fast writes performed
system.cpu.dtb_walker_cache.cache_copies            0                       # number of cache copies performed
system.cpu.dtb_walker_cache.no_allocate_misses            0                       # Number of misses that were no-allocate
system.cpu.icache.replacements                      0                       # number of replacements
system.cpu.icache.tagsinuse                 31.999124                       # Cycle average of tags in use
system.cpu.icache.total_refs                  8419293                       # Total number of references to valid blocks.
system.cpu.icache.sampled_refs                     32                       # Sample count of references to valid blocks.
system.cpu.icache.avg_refs               263102.906250                       # Average number of references to valid blocks.
system.cpu.icache.warmup_cycle                      0                       # Cycle when the warmup percentage was hit.
system.cpu.icache.occ_blocks::cpu.inst      31.999124                       # Average occupied blocks per requestor
system.cpu.icache.occ_percent::cpu.inst      0.062498                       # Average percentage of cache occupancy
system.cpu.icache.occ_percent::total         0.062498                       # Average percentage of cache occupancy
system.cpu.icache.ReadReq_hits::cpu.inst      8419293                       # number of ReadReq hits
system.cpu.icache.ReadReq_hits::total         8419293                       # number of ReadReq hits
system.cpu.icache.demand_hits::cpu.inst       8419293                       # number of demand (read+write) hits
system.cpu.icache.demand_hits::total          8419293                       # number of demand (read+write) hits
system.cpu.icache.overall_hits::cpu.inst      8419293                       # number of overall hits
system.cpu.icache.overall_hits::total         8419293                       # number of overall hits
system.cpu.icache.ReadReq_misses::cpu.inst           32                       # number of ReadReq misses
system.cpu.icache.ReadReq_misses::total            32                       # number of ReadReq misses
system.cpu.icache.demand_misses::cpu.inst           32                       # number of demand (read+write) misses
system.cpu.icache.demand_misses::total             32                       # number of demand (read+write) misses
system.cpu.icache.overall_misses::cpu.inst           32                       # number of overall misses
system.cpu.icache.overall_misses::total            32                       # number of overall misses
system.cpu.icache.ReadReq_miss_latency::cpu.inst      1807000                       # number of ReadReq miss cycles
system.cpu.icache.ReadReq_miss_latency::total      1807000                       # number of ReadReq miss cycles
system.cpu.icache.demand_miss_latency::cpu.inst      1807000                       # number of demand (read+write) miss cycles
system.cpu.icache.demand_miss_latency::total      1807000                       # number of demand (read+write) miss cycles
system.cpu.icache.overall_miss_latency::cpu.inst      1807000                       # number of overall miss cycles
system.cpu.icache.overall_miss_latency::total      1807000                       # number of overall miss cycles
system.cpu.icache.ReadReq_accesses::cpu.inst      8419325                       # number of ReadReq accesses(hits+misses)
system.cpu.icache.ReadReq_accesses::total      8419325                       # number of ReadReq accesses(hits+misses)
system.cpu.icache.demand_accesses::cpu.inst      8419325                       # number of demand (read+write) accesses
system.cpu.icache.demand_accesses::total      8419325                       # number of demand (read+write) accesses
system.cpu.icache.overall_accesses::cpu.inst      8419325                       # number of overall (read+write) accesses
system.cpu.icache.overall_accesses::total      8419325                       # number of overall (read+write) accesses
system.cpu.icache.ReadReq_miss_rate::cpu.inst     0.000004                       # miss rate for ReadReq accesses
system.cpu.icache.ReadReq_miss_rate::total     0.000004                       # miss rate for ReadReq accesses
system.cpu.icache.demand_miss_rate::cpu.inst     0.000004                       # miss rate for demand accesses
system.cpu.icache.demand_miss_rate::total     0.000004                       # miss rate for demand accesses
system.cpu.icache.overall_miss_rate::cpu.inst     0.000004                       # miss rate for overall accesses
system.cpu.icache.overall_miss_rate::total     0.000004                       # miss rate for overall accesses
system.cpu.icache.ReadReq_avg_miss_latency::cpu.inst 56468.750000                       # average ReadReq miss latency
system.cpu.icache.ReadReq_avg_miss_latency::total 56468.750000                       # average ReadReq miss latency
system.cpu.icache.demand_avg_miss_latency::cpu.inst 56468.750000                       # average overall miss latency
system.cpu.icache.demand_avg_miss_latency::total 56468.750000                       # average overall miss latency
system.cpu.icache.overall_avg_miss_latency::cpu.inst 56468.750000                       # average overall miss latency
system.cpu.icache.overall_avg_miss_latency::total 56468.750000                       # average overall miss latency
system.cpu.icache.blocked_cycles::no_mshrs            0                       # number of cycles access was blocked
system.cpu.icache.blocked_cycles::no_targets            0                       # number of cycles access was blocked
system.cpu.icache.blocked::no_mshrs                 0                       # number of cycles access was blocked
system.cpu.icache.blocked::no_targets               0                       # number of cycles access was blocked
system.cpu.icache.avg_blocked_cycles::no_mshrs          nan                       # average number of cycles each access was blocked
system.cpu.icache.avg_blocked_cycles::no_targets          nan                       # average number of cycles each access was blocked
system.cpu.icache.fast_writes                       0                       # number of fast writes performed
system.cpu.icache.cache_copies                      0                       # number of cache copies performed
system.cpu.icache.ReadReq_mshr_misses::cpu.inst           32                       # number of ReadReq MSHR misses
system.cpu.icache.ReadReq_mshr_misses::total           32                       # number of ReadReq MSHR misses
system.cpu.icache.demand_mshr_misses::cpu.inst           32                       # number of demand (read+write) MSHR misses
system.cpu.icache.demand_mshr_misses::total           32                       # number of demand (read+write) MSHR misses
system.cpu.icache.overall_mshr_misses::cpu.inst           32                       # number of overall MSHR misses
system.cpu.icache.overall_mshr_misses::total           32                       # number of overall MSHR misses
system.cpu.icache.ReadReq_mshr_miss_latency::cpu.inst      1743000                       # number of ReadReq MSHR miss cycles
system.cpu.icache.ReadReq_mshr_miss_latency::total      1743000                       # number of ReadReq MSHR miss cycles
system.cpu.icache.demand_mshr_miss_latency::cpu.inst      1743000                       # number of demand (read+write) MSHR miss cycles
system.cpu.icache.demand_mshr_miss_latency::total      1743000                       # number of demand (read+write) MSHR miss cycles
system.cpu.icache.overall_mshr_miss_latency::cpu.inst      1743000                       # number of overall MSHR miss cycles
system.cpu.icache.overall_mshr_miss_latency::total      1743000                       # number of overall MSHR miss cycles
system.cpu.icache.ReadReq_mshr_miss_rate::cpu.inst     0.000004                       # mshr miss rate for ReadReq accesses
system.cpu.icache.ReadReq_mshr_miss_rate::total     0.000004                       # mshr miss rate for ReadReq accesses
system.cpu.icache.demand_mshr_miss_rate::cpu.inst     0.000004                       # mshr miss rate for demand accesses
system.cpu.icache.demand_mshr_miss_rate::total     0.000004                       # mshr miss rate for demand accesses
system.cpu.icache.overall_mshr_miss_rate::cpu.inst     0.000004                       # mshr miss rate for overall accesses
system.cpu.icache.overall_mshr_miss_rate::total     0.000004                       # mshr miss rate for overall accesses
system.cpu.icache.ReadReq_avg_mshr_miss_latency::cpu.inst 54468.750000                       # average ReadReq mshr miss latency
system.cpu.icache.ReadReq_avg_mshr_miss_latency::total 54468.750000                       # average ReadReq mshr miss latency
system.cpu.icache.demand_avg_mshr_miss_latency::cpu.inst 54468.750000                       # average overall mshr miss latency
system.cpu.icache.demand_avg_mshr_miss_latency::total 54468.750000                       # average overall mshr miss latency
system.cpu.icache.overall_avg_mshr_miss_latency::cpu.inst 54468.750000                       # average overall mshr miss latency
system.cpu.icache.overall_avg_mshr_miss_latency::total 54468.750000                       # average overall mshr miss latency
system.cpu.icache.no_allocate_misses                0                       # Number of misses that were no-allocate
system.cpu.dcache.replacements                4839254                       # number of replacements
system.cpu.dcache.tagsinuse                511.945958                       # Cycle average of tags in use
system.cpu.dcache.total_refs                 21498550                       # Total number of references to valid blocks.
system.cpu.dcache.sampled_refs                4839766                       # Sample count of references to valid blocks.
system.cpu.dcache.avg_refs                   4.442064                       # Average number of references to valid blocks.
system.cpu.dcache.warmup_cycle           696762736000                       # Cycle when the warmup percentage was hit.
system.cpu.dcache.occ_blocks::cpu.data     511.945958                       # Average occupied blocks per requestor
system.cpu.dcache.occ_percent::cpu.data      0.999894                       # Average percentage of cache occupancy
system.cpu.dcache.occ_percent::total         0.999894                       # Average percentage of cache occupancy
system.cpu.dcache.ReadReq_hits::cpu.data     15832044                       # number of ReadReq hits
system.cpu.dcache.ReadReq_hits::total        15832044                       # number of ReadReq hits
system.cpu.dcache.WriteReq_hits::cpu.data      5666506                       # number of WriteReq hits
system.cpu.dcache.WriteReq_hits::total        5666506                       # number of WriteReq hits
system.cpu.dcache.demand_hits::cpu.data      21498550                       # number of demand (read+write) hits
system.cpu.dcache.demand_hits::total         21498550                       # number of demand (read+write) hits
system.cpu.dcache.overall_hits::cpu.data     21498550                       # number of overall hits
system.cpu.dcache.overall_hits::total        21498550                       # number of overall hits
system.cpu.dcache.ReadReq_misses::cpu.data      1059851                       # number of ReadReq misses
system.cpu.dcache.ReadReq_misses::total       1059851                       # number of ReadReq misses
system.cpu.dcache.WriteReq_misses::cpu.data      4072185                       # number of WriteReq misses
system.cpu.dcache.WriteReq_misses::total      4072185                       # number of WriteReq misses
system.cpu.dcache.demand_misses::cpu.data      5132036                       # number of demand (read+write) misses
system.cpu.dcache.demand_misses::total        5132036                       # number of demand (read+write) misses
system.cpu.dcache.overall_misses::cpu.data      5132036                       # number of overall misses
system.cpu.dcache.overall_misses::total       5132036                       # number of overall misses
system.cpu.dcache.ReadReq_miss_latency::cpu.data  58395054500                       # number of ReadReq miss cycles
system.cpu.dcache.ReadReq_miss_latency::total  58395054500                       # number of ReadReq miss cycles
system.cpu.dcache.WriteReq_miss_latency::cpu.data 148005688000                       # number of WriteReq miss cycles
system.cpu.dcache.WriteReq_miss_latency::total 148005688000                       # number of WriteReq miss cycles
system.cpu.dcache.demand_miss_latency::cpu.data 206400742500                       # number of demand (read+write) miss cycles
system.cpu.dcache.demand_miss_latency::total 206400742500                       # number of demand (read+write) miss cycles
system.cpu.dcache.overall_miss_latency::cpu.data 206400742500                       # number of overall miss cycles
system.cpu.dcache.overall_miss_latency::total 206400742500                       # number of overall miss cycles
system.cpu.dcache.ReadReq_accesses::cpu.data     16891895                       # number of ReadReq accesses(hits+misses)
system.cpu.dcache.ReadReq_accesses::total     16891895                       # number of ReadReq accesses(hits+misses)
system.cpu.dcache.WriteReq_accesses::cpu.data      9738691                       # number of WriteReq accesses(hits+misses)
system.cpu.dcache.WriteReq_accesses::total      9738691                       # number of WriteReq accesses(hits+misses)
system.cpu.dcache.demand_accesses::cpu.data     26630586                       # number of demand (read+write) accesses
system.cpu.dcache.demand_accesses::total     26630586                       # number of demand (read+write) accesses
system.cpu.dcache.overall_accesses::cpu.data     26630586                       # number of overall (read+write) accesses
system.cpu.dcache.overall_accesses::total     26630586                       # number of overall (read+write) accesses
system.cpu.dcache.ReadReq_miss_rate::cpu.data     0.062743                       # miss rate for ReadReq accesses
system.cpu.dcache.ReadReq_miss_rate::total     0.062743                       # miss rate for ReadReq accesses
system.cpu.dcache.WriteReq_miss_rate::cpu.data     0.418145                       # miss rate for WriteReq accesses
system.cpu.dcache.WriteReq_miss_rate::total     0.418145                       # miss rate for WriteReq accesses
system.cpu.dcache.demand_miss_rate::cpu.data     0.192712                       # miss rate for demand accesses
system.cpu.dcache.demand_miss_rate::total     0.192712                       # miss rate for demand accesses
system.cpu.dcache.overall_miss_rate::cpu.data     0.192712                       # miss rate for overall accesses
system.cpu.dcache.overall_miss_rate::total     0.192712                       # miss rate for overall accesses
system.cpu.dcache.ReadReq_avg_miss_latency::cpu.data 55097.418882                       # average ReadReq miss latency
system.cpu.dcache.ReadReq_avg_miss_latency::total 55097.418882                       # average ReadReq miss latency
system.cpu.dcache.WriteReq_avg_miss_latency::cpu.data 36345.521630                       # average WriteReq miss latency
system.cpu.dcache.WriteReq_avg_miss_latency::total 36345.521630                       # average WriteReq miss latency
system.cpu.dcache.demand_avg_miss_latency::cpu.data 40218.101062                       # average overall miss latency
system.cpu.dcache.demand_avg_miss_latency::total 40218.101062                       # average overall miss latency
system.cpu.dcache.overall_avg_miss_latency::cpu.data 40218.101062                       # average overall miss latency
system.cpu.dcache.overall_avg_miss_latency::total 40218.101062                       # average overall miss latency
system.cpu.dcache.blocked_cycles::no_mshrs            0                       # number of cycles access was blocked
system.cpu.dcache.blocked_cycles::no_targets            0                       # number of cycles access was blocked
system.cpu.dcache.blocked::no_mshrs                 0                       # number of cycles access was blocked
system.cpu.dcache.blocked::no_targets               0                       # number of cycles access was blocked
system.cpu.dcache.avg_blocked_cycles::no_mshrs          nan                       # average number of cycles each access was blocked
system.cpu.dcache.avg_blocked_cycles::no_targets          nan                       # average number of cycles each access was blocked
system.cpu.dcache.fast_writes                       0                       # number of fast writes performed
system.cpu.dcache.cache_copies                      0                       # number of cache copies performed
system.cpu.dcache.writebacks::writebacks      4073953                       # number of writebacks
system.cpu.dcache.writebacks::total           4073953                       # number of writebacks
system.cpu.dcache.ReadReq_mshr_hits::cpu.data       292270                       # number of ReadReq MSHR hits
system.cpu.dcache.ReadReq_mshr_hits::total       292270                       # number of ReadReq MSHR hits
system.cpu.dcache.demand_mshr_hits::cpu.data       292270                       # number of demand (read+write) MSHR hits
system.cpu.dcache.demand_mshr_hits::total       292270                       # number of demand (read+write) MSHR hits
system.cpu.dcache.overall_mshr_hits::cpu.data       292270                       # number of overall MSHR hits
system.cpu.dcache.overall_mshr_hits::total       292270                       # number of overall MSHR hits
system.cpu.dcache.ReadReq_mshr_misses::cpu.data       767581                       # number of ReadReq MSHR misses
system.cpu.dcache.ReadReq_mshr_misses::total       767581                       # number of ReadReq MSHR misses
system.cpu.dcache.WriteReq_mshr_misses::cpu.data      4072185                       # number of WriteReq MSHR misses
system.cpu.dcache.WriteReq_mshr_misses::total      4072185                       # number of WriteReq MSHR misses
system.cpu.dcache.demand_mshr_misses::cpu.data      4839766                       # number of demand (read+write) MSHR misses
system.cpu.dcache.demand_mshr_misses::total      4839766                       # number of demand (read+write) MSHR misses
system.cpu.dcache.overall_mshr_misses::cpu.data      4839766                       # number of overall MSHR misses
system.cpu.dcache.overall_mshr_misses::total      4839766                       # number of overall MSHR misses
system.cpu.dcache.ReadReq_mshr_miss_latency::cpu.data  41203092000                       # number of ReadReq MSHR miss cycles
system.cpu.dcache.ReadReq_mshr_miss_latency::total  41203092000                       # number of ReadReq MSHR miss cycles
system.cpu.dcache.WriteReq_mshr_miss_latency::cpu.data 139861318000                       # number of WriteReq MSHR miss cycles
system.cpu.dcache.WriteReq_mshr_miss_latency::total 139861318000                       # number of WriteReq MSHR miss cycles
system.cpu.dcache.demand_mshr_miss_latency::cpu.data 181064410000                       # number of demand (read+write) MSHR miss cycles
system.cpu.dcache.demand_mshr_miss_latency::total 181064410000                       # number of demand (read+write) MSHR miss cycles
system.cpu.dcache.overall_mshr_miss_latency::cpu.data 181064410000                       # number of overall MSHR miss cycles
system.cpu.dcache.overall_mshr_miss_latency::total 181064410000                       # number of overall MSHR miss cycles
system.cpu.dcache.ReadReq_mshr_miss_rate::cpu.data     0.045441                       # mshr miss rate for ReadReq accesses
system.cpu.dcache.ReadReq_mshr_miss_rate::total     0.045441                       # mshr miss rate for ReadReq accesses
system.cpu.dcache.WriteReq_mshr_miss_rate::cpu.data     0.418145                       # mshr miss rate for WriteReq accesses
system.cpu.dcache.WriteReq_mshr_miss_rate::total     0.418145                       # mshr miss rate for WriteReq accesses
system.cpu.dcache.demand_mshr_miss_rate::cpu.data     0.181737                       # mshr miss rate for demand accesses
system.cpu.dcache.demand_mshr_miss_rate::total     0.181737                       # mshr miss rate for demand accesses
system.cpu.dcache.overall_mshr_miss_rate::cpu.data     0.181737                       # mshr miss rate for overall accesses
system.cpu.dcache.overall_mshr_miss_rate::total     0.181737                       # mshr miss rate for overall accesses
system.cpu.dcache.ReadReq_avg_mshr_miss_latency::cpu.data 53679.145263                       # average ReadReq mshr miss latency
system.cpu.dcache.ReadReq_avg_mshr_miss_latency::total 53679.145263                       # average ReadReq mshr miss latency
system.cpu.dcache.WriteReq_avg_mshr_miss_latency::cpu.data 34345.521630                       # average WriteReq mshr miss latency
system.cpu.dcache.WriteReq_avg_mshr_miss_latency::total 34345.521630                       # average WriteReq mshr miss latency
system.cpu.dcache.demand_avg_mshr_miss_latency::cpu.data 37411.810819                       # average overall mshr miss latency
system.cpu.dcache.demand_avg_mshr_miss_latency::total 37411.810819                       # average overall mshr miss latency
system.cpu.dcache.overall_avg_mshr_miss_latency::cpu.data 37411.810819                       # average overall mshr miss latency
system.cpu.dcache.overall_avg_mshr_miss_latency::total 37411.810819                       # average overall mshr miss latency
system.cpu.dcache.no_allocate_misses                0                       # Number of misses that were no-allocate

---------- End Simulation Statistics   ----------
