
---------- Begin Simulation Statistics ----------
sim_seconds                                  0.696684                       # Number of seconds simulated
sim_ticks                                696683686000                       # Number of ticks simulated
final_tick                               696683686000                       # Number of ticks from beginning of simulation (restored from checkpoints and never reset)
sim_freq                                 1000000000000                       # Frequency of simulated ticks
host_inst_rate                                1121760                       # Simulator instruction rate (inst/s)
host_op_rate                                  1641063                       # Simulator op (including micro ops) rate (op/s)
host_tick_rate                             1116445492                       # Simulator tick rate (ticks/s)
host_mem_usage                                2215268                       # Number of bytes of host memory used
host_seconds                                   624.02                       # Real time elapsed on the host
sim_insts                                   700000001                       # Number of instructions simulated
sim_ops                                    1024055327                       # Number of ops (including micro ops) simulated
system.physmem.bytes_read::cpu.inst        8554496376                       # Number of bytes read from this memory
system.physmem.bytes_read::cpu.data        1018290553                       # Number of bytes read from this memory
system.physmem.bytes_read::total           9572786929                       # Number of bytes read from this memory
system.physmem.bytes_inst_read::cpu.inst   8554496376                       # Number of instructions bytes read from this memory
system.physmem.bytes_inst_read::total      8554496376                       # Number of instructions bytes read from this memory
system.physmem.bytes_written::cpu.data      882013173                       # Number of bytes written to this memory
system.physmem.bytes_written::total         882013173                       # Number of bytes written to this memory
system.physmem.num_reads::cpu.inst         1069312047                       # Number of read requests responded to by this memory
system.physmem.num_reads::cpu.data          141317975                       # Number of read requests responded to by this memory
system.physmem.num_reads::total            1210630022                       # Number of read requests responded to by this memory
system.physmem.num_writes::cpu.data         116977711                       # Number of write requests responded to by this memory
system.physmem.num_writes::total            116977711                       # Number of write requests responded to by this memory
system.physmem.bw_read::cpu.inst          12278881432                       # Total read bandwidth from this memory (bytes/s)
system.physmem.bw_read::cpu.data           1461625374                       # Total read bandwidth from this memory (bytes/s)
system.physmem.bw_read::total             13740506806                       # Total read bandwidth from this memory (bytes/s)
system.physmem.bw_inst_read::cpu.inst     12278881432                       # Instruction read bandwidth from this memory (bytes/s)
system.physmem.bw_inst_read::total        12278881432                       # Instruction read bandwidth from this memory (bytes/s)
system.physmem.bw_write::cpu.data          1266016688                       # Write bandwidth from this memory (bytes/s)
system.physmem.bw_write::total             1266016688                       # Write bandwidth from this memory (bytes/s)
system.physmem.bw_total::cpu.inst         12278881432                       # Total bandwidth to/from this memory (bytes/s)
system.physmem.bw_total::cpu.data          2727642062                       # Total bandwidth to/from this memory (bytes/s)
system.physmem.bw_total::total            15006523494                       # Total bandwidth to/from this memory (bytes/s)
system.cpu.workload.num_syscalls                  354                       # Number of system calls
system.cpu.numCycles                       1393367373                       # number of cpu cycles simulated
system.cpu.numWorkItemsStarted                      0                       # number of work items this cpu started
system.cpu.numWorkItemsCompleted                    0                       # number of work items this cpu completed
system.cpu.committedInsts                   700000001                       # Number of instructions committed
system.cpu.committedOps                    1024055327                       # Number of ops (including micro ops) committed
system.cpu.num_int_alu_accesses             718787068                       # Number of integer alu accesses
system.cpu.num_fp_alu_accesses              433661726                       # Number of float alu accesses
system.cpu.num_func_calls                           0                       # number of times a function call or return occured
system.cpu.num_conditional_control_insts     61434758                       # number of instructions that are conditional controls
system.cpu.num_int_insts                    718787068                       # number of integer instructions
system.cpu.num_fp_insts                     433661726                       # number of float instructions
system.cpu.num_int_register_reads          1745257727                       # number of times the integer registers were read
system.cpu.num_int_register_writes          619598553                       # number of times the integer registers were written
system.cpu.num_fp_register_reads            884462173                       # number of times the floating registers were read
system.cpu.num_fp_register_writes           394243048                       # number of times the floating registers were written
system.cpu.num_mem_refs                     258295686                       # number of memory refs
system.cpu.num_load_insts                   141317975                       # Number of load instructions
system.cpu.num_store_insts                  116977711                       # Number of store instructions
system.cpu.num_idle_cycles                          0                       # Number of idle cycles
system.cpu.num_busy_cycles                 1393367373                       # Number of busy cycles
system.cpu.not_idle_fraction                        1                       # Percentage of non-idle cycles
system.cpu.idle_fraction                            0                       # Percentage of idle cycles

---------- End Simulation Statistics   ----------
