
---------- Begin Simulation Statistics ----------
sim_seconds                                  0.156556                       # Number of seconds simulated
sim_ticks                                156556173500                       # Number of ticks simulated
final_tick                               853239859500                       # Number of ticks from beginning of simulation (restored from checkpoints and never reset)
sim_freq                                 1000000000000                       # Frequency of simulated ticks
host_inst_rate                                  68820                       # Simulator instruction rate (inst/s)
host_op_rate                                    82583                       # Simulator op (including micro ops) rate (op/s)
host_tick_rate                              107742315                       # Simulator tick rate (ticks/s)
host_mem_usage                                2361824                       # Number of bytes of host memory used
host_seconds                                  1453.06                       # Real time elapsed on the host
sim_insts                                   100000000                       # Number of instructions simulated
sim_ops                                     119997631                       # Number of ops (including micro ops) simulated
system.physmem.bytes_read::cpu.inst              2112                       # Number of bytes read from this memory
system.physmem.bytes_read::cpu.data         192149184                       # Number of bytes read from this memory
system.physmem.bytes_read::total            192151296                       # Number of bytes read from this memory
system.physmem.bytes_inst_read::cpu.inst         2112                       # Number of instructions bytes read from this memory
system.physmem.bytes_inst_read::total            2112                       # Number of instructions bytes read from this memory
system.physmem.bytes_written::writebacks    143899200                       # Number of bytes written to this memory
system.physmem.bytes_written::total         143899200                       # Number of bytes written to this memory
system.physmem.num_reads::cpu.inst                 33                       # Number of read requests responded to by this memory
system.physmem.num_reads::cpu.data            3002331                       # Number of read requests responded to by this memory
system.physmem.num_reads::total               3002364                       # Number of read requests responded to by this memory
system.physmem.num_writes::writebacks         2248425                       # Number of write requests responded to by this memory
system.physmem.num_writes::total              2248425                       # Number of write requests responded to by this memory
system.physmem.bw_read::cpu.inst                13490                       # Total read bandwidth from this memory (bytes/s)
system.physmem.bw_read::cpu.data           1227349773                       # Total read bandwidth from this memory (bytes/s)
system.physmem.bw_read::total              1227363263                       # Total read bandwidth from this memory (bytes/s)
system.physmem.bw_inst_read::cpu.inst           13490                       # Instruction read bandwidth from this memory (bytes/s)
system.physmem.bw_inst_read::total              13490                       # Instruction read bandwidth from this memory (bytes/s)
system.physmem.bw_write::writebacks         919153789                       # Write bandwidth from this memory (bytes/s)
system.physmem.bw_write::total              919153789                       # Write bandwidth from this memory (bytes/s)
system.physmem.bw_total::writebacks         919153789                       # Total bandwidth to/from this memory (bytes/s)
system.physmem.bw_total::cpu.inst               13490                       # Total bandwidth to/from this memory (bytes/s)
system.physmem.bw_total::cpu.data          1227349773                       # Total bandwidth to/from this memory (bytes/s)
system.physmem.bw_total::total             2146517052                       # Total bandwidth to/from this memory (bytes/s)
system.l2.replacements                        2998058                       # number of replacements
system.l2.tagsinuse                       3864.540694                       # Cycle average of tags in use
system.l2.total_refs                          1832594                       # Total number of references to valid blocks.
system.l2.sampled_refs                        3001926                       # Sample count of references to valid blocks.
system.l2.avg_refs                           0.610473                       # Average number of references to valid blocks.
system.l2.warmup_cycle                              0                       # Cycle when the warmup percentage was hit.
system.l2.occ_blocks::writebacks          3038.526318                       # Average occupied blocks per requestor
system.l2.occ_blocks::cpu.inst               0.045511                       # Average occupied blocks per requestor
system.l2.occ_blocks::cpu.data             825.968865                       # Average occupied blocks per requestor
system.l2.occ_percent::writebacks            0.741828                       # Average percentage of cache occupancy
system.l2.occ_percent::cpu.inst              0.000011                       # Average percentage of cache occupancy
system.l2.occ_percent::cpu.data              0.201653                       # Average percentage of cache occupancy
system.l2.occ_percent::total                 0.943491                       # Average percentage of cache occupancy
system.l2.ReadReq_hits::cpu.data                15447                       # number of ReadReq hits
system.l2.ReadReq_hits::total                   15447                       # number of ReadReq hits
system.l2.Writeback_hits::writebacks          4068946                       # number of Writeback hits
system.l2.Writeback_hits::total               4068946                       # number of Writeback hits
system.l2.ReadExReq_hits::cpu.data            1817479                       # number of ReadExReq hits
system.l2.ReadExReq_hits::total               1817479                       # number of ReadExReq hits
system.l2.demand_hits::cpu.data               1832926                       # number of demand (read+write) hits
system.l2.demand_hits::total                  1832926                       # number of demand (read+write) hits
system.l2.overall_hits::cpu.data              1832926                       # number of overall hits
system.l2.overall_hits::total                 1832926                       # number of overall hits
system.l2.ReadReq_misses::cpu.inst                 33                       # number of ReadReq misses
system.l2.ReadReq_misses::cpu.data             750426                       # number of ReadReq misses
system.l2.ReadReq_misses::total                750459                       # number of ReadReq misses
system.l2.ReadExReq_misses::cpu.data          2251905                       # number of ReadExReq misses
system.l2.ReadExReq_misses::total             2251905                       # number of ReadExReq misses
system.l2.demand_misses::cpu.inst                  33                       # number of demand (read+write) misses
system.l2.demand_misses::cpu.data             3002331                       # number of demand (read+write) misses
system.l2.demand_misses::total                3002364                       # number of demand (read+write) misses
system.l2.overall_misses::cpu.inst                 33                       # number of overall misses
system.l2.overall_misses::cpu.data            3002331                       # number of overall misses
system.l2.overall_misses::total               3002364                       # number of overall misses
system.l2.ReadReq_miss_latency::cpu.inst      1746500                       # number of ReadReq miss cycles
system.l2.ReadReq_miss_latency::cpu.data  42135105000                       # number of ReadReq miss cycles
system.l2.ReadReq_miss_latency::total     42136851500                       # number of ReadReq miss cycles
system.l2.ReadExReq_miss_latency::cpu.data 120078859000                       # number of ReadExReq miss cycles
system.l2.ReadExReq_miss_latency::total  120078859000                       # number of ReadExReq miss cycles
system.l2.demand_miss_latency::cpu.inst       1746500                       # number of demand (read+write) miss cycles
system.l2.demand_miss_latency::cpu.data  162213964000                       # number of demand (read+write) miss cycles
system.l2.demand_miss_latency::total     162215710500                       # number of demand (read+write) miss cycles
system.l2.overall_miss_latency::cpu.inst      1746500                       # number of overall miss cycles
system.l2.overall_miss_latency::cpu.data 162213964000                       # number of overall miss cycles
system.l2.overall_miss_latency::total    162215710500                       # number of overall miss cycles
system.l2.ReadReq_accesses::cpu.inst               33                       # number of ReadReq accesses(hits+misses)
system.l2.ReadReq_accesses::cpu.data           765873                       # number of ReadReq accesses(hits+misses)
system.l2.ReadReq_accesses::total              765906                       # number of ReadReq accesses(hits+misses)
system.l2.Writeback_accesses::writebacks      4068946                       # number of Writeback accesses(hits+misses)
system.l2.Writeback_accesses::total           4068946                       # number of Writeback accesses(hits+misses)
system.l2.ReadExReq_accesses::cpu.data        4069384                       # number of ReadExReq accesses(hits+misses)
system.l2.ReadExReq_accesses::total           4069384                       # number of ReadExReq accesses(hits+misses)
system.l2.demand_accesses::cpu.inst                33                       # number of demand (read+write) accesses
system.l2.demand_accesses::cpu.data           4835257                       # number of demand (read+write) accesses
system.l2.demand_accesses::total              4835290                       # number of demand (read+write) accesses
system.l2.overall_accesses::cpu.inst               33                       # number of overall (read+write) accesses
system.l2.overall_accesses::cpu.data          4835257                       # number of overall (read+write) accesses
system.l2.overall_accesses::total             4835290                       # number of overall (read+write) accesses
system.l2.ReadReq_miss_rate::cpu.inst               1                       # miss rate for ReadReq accesses
system.l2.ReadReq_miss_rate::cpu.data        0.979831                       # miss rate for ReadReq accesses
system.l2.ReadReq_miss_rate::total           0.979832                       # miss rate for ReadReq accesses
system.l2.ReadExReq_miss_rate::cpu.data      0.553377                       # miss rate for ReadExReq accesses
system.l2.ReadExReq_miss_rate::total         0.553377                       # miss rate for ReadExReq accesses
system.l2.demand_miss_rate::cpu.inst                1                       # miss rate for demand accesses
system.l2.demand_miss_rate::cpu.data         0.620925                       # miss rate for demand accesses
system.l2.demand_miss_rate::total            0.620927                       # miss rate for demand accesses
system.l2.overall_miss_rate::cpu.inst               1                       # miss rate for overall accesses
system.l2.overall_miss_rate::cpu.data        0.620925                       # miss rate for overall accesses
system.l2.overall_miss_rate::total           0.620927                       # miss rate for overall accesses
system.l2.ReadReq_avg_miss_latency::cpu.inst 52924.242424                       # average ReadReq miss latency
system.l2.ReadReq_avg_miss_latency::cpu.data 56148.247795                       # average ReadReq miss latency
system.l2.ReadReq_avg_miss_latency::total 56148.106026                       # average ReadReq miss latency
system.l2.ReadExReq_avg_miss_latency::cpu.data 53323.234772                       # average ReadExReq miss latency
system.l2.ReadExReq_avg_miss_latency::total 53323.234772                       # average ReadExReq miss latency
system.l2.demand_avg_miss_latency::cpu.inst 52924.242424                       # average overall miss latency
system.l2.demand_avg_miss_latency::cpu.data 54029.340536                       # average overall miss latency
system.l2.demand_avg_miss_latency::total 54029.328389                       # average overall miss latency
system.l2.overall_avg_miss_latency::cpu.inst 52924.242424                       # average overall miss latency
system.l2.overall_avg_miss_latency::cpu.data 54029.340536                       # average overall miss latency
system.l2.overall_avg_miss_latency::total 54029.328389                       # average overall miss latency
system.l2.blocked_cycles::no_mshrs                  0                       # number of cycles access was blocked
system.l2.blocked_cycles::no_targets                0                       # number of cycles access was blocked
system.l2.blocked::no_mshrs                         0                       # number of cycles access was blocked
system.l2.blocked::no_targets                       0                       # number of cycles access was blocked
system.l2.avg_blocked_cycles::no_mshrs            nan                       # average number of cycles each access was blocked
system.l2.avg_blocked_cycles::no_targets          nan                       # average number of cycles each access was blocked
system.l2.fast_writes                               0                       # number of fast writes performed
system.l2.cache_copies                              0                       # number of cache copies performed
system.l2.writebacks::writebacks              2248425                       # number of writebacks
system.l2.writebacks::total                   2248425                       # number of writebacks
system.l2.ReadReq_mshr_misses::cpu.inst            33                       # number of ReadReq MSHR misses
system.l2.ReadReq_mshr_misses::cpu.data        750426                       # number of ReadReq MSHR misses
system.l2.ReadReq_mshr_misses::total           750459                       # number of ReadReq MSHR misses
system.l2.ReadExReq_mshr_misses::cpu.data      2251905                       # number of ReadExReq MSHR misses
system.l2.ReadExReq_mshr_misses::total        2251905                       # number of ReadExReq MSHR misses
system.l2.demand_mshr_misses::cpu.inst             33                       # number of demand (read+write) MSHR misses
system.l2.demand_mshr_misses::cpu.data        3002331                       # number of demand (read+write) MSHR misses
system.l2.demand_mshr_misses::total           3002364                       # number of demand (read+write) MSHR misses
system.l2.overall_mshr_misses::cpu.inst            33                       # number of overall MSHR misses
system.l2.overall_mshr_misses::cpu.data       3002331                       # number of overall MSHR misses
system.l2.overall_mshr_misses::total          3002364                       # number of overall MSHR misses
system.l2.ReadReq_mshr_miss_latency::cpu.inst      1341500                       # number of ReadReq MSHR miss cycles
system.l2.ReadReq_mshr_miss_latency::cpu.data  33053323500                       # number of ReadReq MSHR miss cycles
system.l2.ReadReq_mshr_miss_latency::total  33054665000                       # number of ReadReq MSHR miss cycles
system.l2.ReadExReq_mshr_miss_latency::cpu.data  92920269000                       # number of ReadExReq MSHR miss cycles
system.l2.ReadExReq_mshr_miss_latency::total  92920269000                       # number of ReadExReq MSHR miss cycles
system.l2.demand_mshr_miss_latency::cpu.inst      1341500                       # number of demand (read+write) MSHR miss cycles
system.l2.demand_mshr_miss_latency::cpu.data 125973592500                       # number of demand (read+write) MSHR miss cycles
system.l2.demand_mshr_miss_latency::total 125974934000                       # number of demand (read+write) MSHR miss cycles
system.l2.overall_mshr_miss_latency::cpu.inst      1341500                       # number of overall MSHR miss cycles
system.l2.overall_mshr_miss_latency::cpu.data 125973592500                       # number of overall MSHR miss cycles
system.l2.overall_mshr_miss_latency::total 125974934000                       # number of overall MSHR miss cycles
system.l2.ReadReq_mshr_miss_rate::cpu.inst            1                       # mshr miss rate for ReadReq accesses
system.l2.ReadReq_mshr_miss_rate::cpu.data     0.979831                       # mshr miss rate for ReadReq accesses
system.l2.ReadReq_mshr_miss_rate::total      0.979832                       # mshr miss rate for ReadReq accesses
system.l2.ReadExReq_mshr_miss_rate::cpu.data     0.553377                       # mshr miss rate for ReadExReq accesses
system.l2.ReadExReq_mshr_miss_rate::total     0.553377                       # mshr miss rate for ReadExReq accesses
system.l2.demand_mshr_miss_rate::cpu.inst            1                       # mshr miss rate for demand accesses
system.l2.demand_mshr_miss_rate::cpu.data     0.620925                       # mshr miss rate for demand accesses
system.l2.demand_mshr_miss_rate::total       0.620927                       # mshr miss rate for demand accesses
system.l2.overall_mshr_miss_rate::cpu.inst            1                       # mshr miss rate for overall accesses
system.l2.overall_mshr_miss_rate::cpu.data     0.620925                       # mshr miss rate for overall accesses
system.l2.overall_mshr_miss_rate::total      0.620927                       # mshr miss rate for overall accesses
system.l2.ReadReq_avg_mshr_miss_latency::cpu.inst 40651.515152                       # average ReadReq mshr miss latency
system.l2.ReadReq_avg_mshr_miss_latency::cpu.data 44046.079827                       # average ReadReq mshr miss latency
system.l2.ReadReq_avg_mshr_miss_latency::total 44045.930557                       # average ReadReq mshr miss latency
system.l2.ReadExReq_avg_mshr_miss_latency::cpu.data 41262.961359                       # average ReadExReq mshr miss latency
system.l2.ReadExReq_avg_mshr_miss_latency::total 41262.961359                       # average ReadExReq mshr miss latency
system.l2.demand_avg_mshr_miss_latency::cpu.inst 40651.515152                       # average overall mshr miss latency
system.l2.demand_avg_mshr_miss_latency::cpu.data 41958.595671                       # average overall mshr miss latency
system.l2.demand_avg_mshr_miss_latency::total 41958.581305                       # average overall mshr miss latency
system.l2.overall_avg_mshr_miss_latency::cpu.inst 40651.515152                       # average overall mshr miss latency
system.l2.overall_avg_mshr_miss_latency::cpu.data 41958.595671                       # average overall mshr miss latency
system.l2.overall_avg_mshr_miss_latency::total 41958.581305                       # average overall mshr miss latency
system.l2.no_allocate_misses                        0                       # Number of misses that were no-allocate
system.cpu.branchPred.lookups                 1179829                       # Number of BP lookups
system.cpu.branchPred.condPredicted           1179829                       # Number of conditional branches predicted
system.cpu.branchPred.condIncorrect              3016                       # Number of conditional branches incorrect
system.cpu.branchPred.BTBLookups               297198                       # Number of BTB lookups
system.cpu.branchPred.BTBHits                  297198                       # Number of BTB hits
system.cpu.branchPred.BTBCorrect                    0                       # Number of correct BTB predictions (this stat may not work properly.
system.cpu.branchPred.BTBHitPct            100.000000                       # BTB Hit Percentage
system.cpu.branchPred.usedRAS                       0                       # Number of times the RAS was used to get a target.
system.cpu.branchPred.RASInCorrect                  0                       # Number of incorrect RAS predictions.
system.cpu.workload.num_syscalls                    0                       # Number of system calls
system.cpu.numCycles                        313112347                       # number of cpu cycles simulated
system.cpu.numWorkItemsStarted                      0                       # number of work items this cpu started
system.cpu.numWorkItemsCompleted                    0                       # number of work items this cpu completed
system.cpu.fetch.icacheStallCycles            8442779                       # Number of cycles fetch is stalled on an Icache miss
system.cpu.fetch.Insts                      100194405                       # Number of instructions fetch has processed
system.cpu.fetch.Branches                     1179829                       # Number of branches that fetch encountered
system.cpu.fetch.predictedBranches             297198                       # Number of branches that fetch has predicted taken
system.cpu.fetch.Cycles                      36004434                       # Number of cycles fetch has run and was not squashing or blocked
system.cpu.fetch.SquashCycles                   59741                       # Number of cycles fetch has spent squashing
system.cpu.fetch.BlockedCycles              268607364                       # Number of cycles fetch has spent blocked
system.cpu.fetch.CacheLines                   8437288                       # Number of cache lines fetched
system.cpu.fetch.IcacheSquashes                     1                       # Number of outstanding Icache misses that were squashed
system.cpu.fetch.rateDist::samples          313111262                       # Number of instructions fetched each cycle (Total)
system.cpu.fetch.rateDist::mean              0.383959                       # Number of instructions fetched each cycle (Total)
system.cpu.fetch.rateDist::stdev             1.155094                       # Number of instructions fetched each cycle (Total)
system.cpu.fetch.rateDist::underflows               0      0.00%      0.00% # Number of instructions fetched each cycle (Total)
system.cpu.fetch.rateDist::0                280286675     89.52%     89.52% # Number of instructions fetched each cycle (Total)
system.cpu.fetch.rateDist::1                  2312165      0.74%     90.26% # Number of instructions fetched each cycle (Total)
system.cpu.fetch.rateDist::2                  1197730      0.38%     90.64% # Number of instructions fetched each cycle (Total)
system.cpu.fetch.rateDist::3                  1744489      0.56%     91.19% # Number of instructions fetched each cycle (Total)
system.cpu.fetch.rateDist::4                 27570203      8.81%    100.00% # Number of instructions fetched each cycle (Total)
system.cpu.fetch.rateDist::overflows                0      0.00%    100.00% # Number of instructions fetched each cycle (Total)
system.cpu.fetch.rateDist::min_value                0                       # Number of instructions fetched each cycle (Total)
system.cpu.fetch.rateDist::max_value                4                       # Number of instructions fetched each cycle (Total)
system.cpu.fetch.rateDist::total            313111262                       # Number of instructions fetched each cycle (Total)
system.cpu.fetch.branchRate                  0.003768                       # Number of branch fetches per cycle
system.cpu.fetch.rate                        0.319995                       # Number of inst fetches per cycle
system.cpu.decode.IdleCycles                 24443955                       # Number of cycles decode is idle
system.cpu.decode.BlockedCycles             255786095                       # Number of cycles decode is blocked
system.cpu.decode.RunCycles                  22755322                       # Number of cycles decode is running
system.cpu.decode.UnblockCycles              10069117                       # Number of cycles decode is unblocking
system.cpu.decode.SquashCycles                  56685                       # Number of cycles decode is squashing
system.cpu.decode.DecodedInsts              120221808                       # Number of instructions handled by decode
system.cpu.rename.SquashCycles                  56685                       # Number of cycles rename is squashing
system.cpu.rename.IdleCycles                 31920526                       # Number of cycles rename is idle
system.cpu.rename.BlockCycles               213690701                       # Number of cycles rename is blocking
system.cpu.rename.serializeStallCycles              0                       # count of cycles rename stalled for serializing inst
system.cpu.rename.RunCycles                  24319676                       # Number of cycles rename is running
system.cpu.rename.UnblockCycles              43123586                       # Number of cycles rename is unblocking
system.cpu.rename.RenamedInsts              120215695                       # Number of instructions processed by rename
system.cpu.rename.IQFullEvents               14911098                       # Number of times rename has blocked due to IQ full
system.cpu.rename.LSQFullEvents              24568349                       # Number of times rename has blocked due to LSQ full
system.cpu.rename.RenamedOperands           112869070                       # Number of destination operands rename has renamed
system.cpu.rename.RenameLookups             337606322                       # Number of register rename lookups that rename has made
system.cpu.rename.int_rename_lookups         17447778                       # Number of integer rename lookups
system.cpu.rename.fp_rename_lookups         320158544                       # Number of floating rename lookups
system.cpu.rename.CommittedMaps             112660144                       # Number of HB maps that are committed
system.cpu.rename.UndoneMaps                   208921                       # Number of HB maps that are undone due to squashing
system.cpu.rename.serializingInsts                  0                       # count of serializing insts renamed
system.cpu.rename.tempSerializingInsts              0                       # count of temporary serializing insts renamed
system.cpu.rename.skidInsts                  57226878                       # count of insts added to the skid buffer
system.cpu.memDep0.insertedLoads             18758762                       # Number of loads inserted to the mem dependence unit.
system.cpu.memDep0.insertedStores             9750834                       # Number of stores inserted to the mem dependence unit.
system.cpu.memDep0.conflictingLoads            291179                       # Number of conflicting loads.
system.cpu.memDep0.conflictingStores                0                       # Number of conflicting stores.
system.cpu.iq.iqInstsAdded                  120203933                       # Number of instructions added to the IQ (excludes non-spec)
system.cpu.iq.iqInstsIssued                 120024913                       # Number of instructions issued
system.cpu.iq.iqSquashedInstsIssued             62595                       # Number of squashed instructions issued
system.cpu.iq.iqSquashedInstsExamined          206282                       # Number of squashed instructions iterated over during squash; mainly for profiling
system.cpu.iq.iqSquashedOperandsExamined       576553                       # Number of squashed operands that are examined and possibly removed from graph
system.cpu.iq.issued_per_cycle::samples     313111262                       # Number of insts issued each cycle
system.cpu.iq.issued_per_cycle::mean         0.383330                       # Number of insts issued each cycle
system.cpu.iq.issued_per_cycle::stdev        0.629778                       # Number of insts issued each cycle
system.cpu.iq.issued_per_cycle::underflows            0      0.00%      0.00% # Number of insts issued each cycle
system.cpu.iq.issued_per_cycle::0           214558187     68.52%     68.52% # Number of insts issued each cycle
system.cpu.iq.issued_per_cycle::1            80263614     25.63%     94.16% # Number of insts issued each cycle
system.cpu.iq.issued_per_cycle::2            15538116      4.96%     99.12% # Number of insts issued each cycle
system.cpu.iq.issued_per_cycle::3             2320313      0.74%     99.86% # Number of insts issued each cycle
system.cpu.iq.issued_per_cycle::4              431032      0.14%    100.00% # Number of insts issued each cycle
system.cpu.iq.issued_per_cycle::overflows            0      0.00%    100.00% # Number of insts issued each cycle
system.cpu.iq.issued_per_cycle::min_value            0                       # Number of insts issued each cycle
system.cpu.iq.issued_per_cycle::max_value            4                       # Number of insts issued each cycle
system.cpu.iq.issued_per_cycle::total       313111262                       # Number of insts issued each cycle
system.cpu.iq.fu_full::No_OpClass                   0      0.00%      0.00% # attempts to use FU when none available
system.cpu.iq.fu_full::IntAlu                  283050      0.41%      0.41% # attempts to use FU when none available
system.cpu.iq.fu_full::IntMult                      0      0.00%      0.41% # attempts to use FU when none available
system.cpu.iq.fu_full::IntDiv                       0      0.00%      0.41% # attempts to use FU when none available
system.cpu.iq.fu_full::FloatAdd              68762685     99.59%    100.00% # attempts to use FU when none available
system.cpu.iq.fu_full::FloatCmp                     0      0.00%    100.00% # attempts to use FU when none available
system.cpu.iq.fu_full::FloatCvt                     0      0.00%    100.00% # attempts to use FU when none available
system.cpu.iq.fu_full::FloatMult                    0      0.00%    100.00% # attempts to use FU when none available
system.cpu.iq.fu_full::FloatDiv                     0      0.00%    100.00% # attempts to use FU when none available
system.cpu.iq.fu_full::FloatSqrt                    0      0.00%    100.00% # attempts to use FU when none available
system.cpu.iq.fu_full::SimdAdd                      0      0.00%    100.00% # attempts to use FU when none available
system.cpu.iq.fu_full::SimdAddAcc                   0      0.00%    100.00% # attempts to use FU when none available
system.cpu.iq.fu_full::SimdAlu                      0      0.00%    100.00% # attempts to use FU when none available
system.cpu.iq.fu_full::SimdCmp                      0      0.00%    100.00% # attempts to use FU when none available
system.cpu.iq.fu_full::SimdCvt                      0      0.00%    100.00% # attempts to use FU when none available
system.cpu.iq.fu_full::SimdMisc                     0      0.00%    100.00% # attempts to use FU when none available
system.cpu.iq.fu_full::SimdMult                     0      0.00%    100.00% # attempts to use FU when none available
system.cpu.iq.fu_full::SimdMultAcc                  0      0.00%    100.00% # attempts to use FU when none available
system.cpu.iq.fu_full::SimdShift                    0      0.00%    100.00% # attempts to use FU when none available
system.cpu.iq.fu_full::SimdShiftAcc                 0      0.00%    100.00% # attempts to use FU when none available
system.cpu.iq.fu_full::SimdSqrt                     0      0.00%    100.00% # attempts to use FU when none available
system.cpu.iq.fu_full::SimdFloatAdd                 0      0.00%    100.00% # attempts to use FU when none available
system.cpu.iq.fu_full::SimdFloatAlu                 0      0.00%    100.00% # attempts to use FU when none available
system.cpu.iq.fu_full::SimdFloatCmp                 0      0.00%    100.00% # attempts to use FU when none available
system.cpu.iq.fu_full::SimdFloatCvt                 0      0.00%    100.00% # attempts to use FU when none available
system.cpu.iq.fu_full::SimdFloatDiv                 0      0.00%    100.00% # attempts to use FU when none available
system.cpu.iq.fu_full::SimdFloatMisc                0      0.00%    100.00% # attempts to use FU when none available
system.cpu.iq.fu_full::SimdFloatMult                0      0.00%    100.00% # attempts to use FU when none available
system.cpu.iq.fu_full::SimdFloatMultAcc             0      0.00%    100.00% # attempts to use FU when none available
system.cpu.iq.fu_full::SimdFloatSqrt                0      0.00%    100.00% # attempts to use FU when none available
system.cpu.iq.fu_full::MemRead                      0      0.00%    100.00% # attempts to use FU when none available
system.cpu.iq.fu_full::MemWrite                     0      0.00%    100.00% # attempts to use FU when none available
system.cpu.iq.fu_full::IprAccess                    0      0.00%    100.00% # attempts to use FU when none available
system.cpu.iq.fu_full::InstPrefetch                 0      0.00%    100.00% # attempts to use FU when none available
system.cpu.iq.FU_type_0::No_OpClass                 0      0.00%      0.00% # Type of FU issued
system.cpu.iq.FU_type_0::IntAlu               9709034      8.09%      8.09% # Type of FU issued
system.cpu.iq.FU_type_0::IntMult                    0      0.00%      8.09% # Type of FU issued
system.cpu.iq.FU_type_0::IntDiv                     0      0.00%      8.09% # Type of FU issued
system.cpu.iq.FU_type_0::FloatAdd            81871898     68.21%     76.30% # Type of FU issued
system.cpu.iq.FU_type_0::FloatCmp                   0      0.00%     76.30% # Type of FU issued
system.cpu.iq.FU_type_0::FloatCvt                   0      0.00%     76.30% # Type of FU issued
system.cpu.iq.FU_type_0::FloatMult                  0      0.00%     76.30% # Type of FU issued
system.cpu.iq.FU_type_0::FloatDiv                   0      0.00%     76.30% # Type of FU issued
system.cpu.iq.FU_type_0::FloatSqrt                  0      0.00%     76.30% # Type of FU issued
system.cpu.iq.FU_type_0::SimdAdd                    0      0.00%     76.30% # Type of FU issued
system.cpu.iq.FU_type_0::SimdAddAcc                 0      0.00%     76.30% # Type of FU issued
system.cpu.iq.FU_type_0::SimdAlu                    0      0.00%     76.30% # Type of FU issued
system.cpu.iq.FU_type_0::SimdCmp                    0      0.00%     76.30% # Type of FU issued
system.cpu.iq.FU_type_0::SimdCvt                    0      0.00%     76.30% # Type of FU issued
system.cpu.iq.FU_type_0::SimdMisc                   0      0.00%     76.30% # Type of FU issued
system.cpu.iq.FU_type_0::SimdMult                   0      0.00%     76.30% # Type of FU issued
system.cpu.iq.FU_type_0::SimdMultAcc                0      0.00%     76.30% # Type of FU issued
system.cpu.iq.FU_type_0::SimdShift                  0      0.00%     76.30% # Type of FU issued
system.cpu.iq.FU_type_0::SimdShiftAcc               0      0.00%     76.30% # Type of FU issued
system.cpu.iq.FU_type_0::SimdSqrt                   0      0.00%     76.30% # Type of FU issued
system.cpu.iq.FU_type_0::SimdFloatAdd               0      0.00%     76.30% # Type of FU issued
system.cpu.iq.FU_type_0::SimdFloatAlu               0      0.00%     76.30% # Type of FU issued
system.cpu.iq.FU_type_0::SimdFloatCmp               0      0.00%     76.30% # Type of FU issued
system.cpu.iq.FU_type_0::SimdFloatCvt               0      0.00%     76.30% # Type of FU issued
system.cpu.iq.FU_type_0::SimdFloatDiv               0      0.00%     76.30% # Type of FU issued
system.cpu.iq.FU_type_0::SimdFloatMisc              0      0.00%     76.30% # Type of FU issued
system.cpu.iq.FU_type_0::SimdFloatMult              0      0.00%     76.30% # Type of FU issued
system.cpu.iq.FU_type_0::SimdFloatMultAcc            0      0.00%     76.30% # Type of FU issued
system.cpu.iq.FU_type_0::SimdFloatSqrt              0      0.00%     76.30% # Type of FU issued
system.cpu.iq.FU_type_0::MemRead             18702175     15.58%     91.88% # Type of FU issued
system.cpu.iq.FU_type_0::MemWrite             9741806      8.12%    100.00% # Type of FU issued
system.cpu.iq.FU_type_0::IprAccess                  0      0.00%    100.00% # Type of FU issued
system.cpu.iq.FU_type_0::InstPrefetch               0      0.00%    100.00% # Type of FU issued
system.cpu.iq.FU_type_0::total              120024913                       # Type of FU issued
system.cpu.iq.rate                           0.383329                       # Inst issue rate
system.cpu.iq.fu_busy_cnt                    69045735                       # FU busy when requested
system.cpu.iq.fu_busy_rate                   0.575262                       # FU busy rate (busy events/executed inst)
system.cpu.iq.int_inst_queue_reads          333418650                       # Number of integer instruction queue reads
system.cpu.iq.int_inst_queue_writes          10033079                       # Number of integer instruction queue writes
system.cpu.iq.int_inst_queue_wakeup_accesses     10009183                       # Number of integer instruction queue wakeup accesses
system.cpu.iq.fp_inst_queue_reads           288850768                       # Number of floating instruction queue reads
system.cpu.iq.fp_inst_queue_writes          110377176                       # Number of floating instruction queue writes
system.cpu.iq.fp_inst_queue_wakeup_accesses    110003594                       # Number of floating instruction queue wakeup accesses
system.cpu.iq.int_alu_accesses               10292238                       # Number of integer alu accesses
system.cpu.iq.fp_alu_accesses               178778410                       # Number of floating point alu accesses
system.cpu.iew.lsq.thread0.forwLoads          4900587                       # Number of loads that had data forwarded from stores
system.cpu.iew.lsq.thread0.invAddrLoads             0                       # Number of loads ignored due to an invalid address
system.cpu.iew.lsq.thread0.squashedLoads        71786                       # Number of loads squashed
system.cpu.iew.lsq.thread0.ignoredResponses            0                       # Number of memory responses ignored because the instruction is squashed
system.cpu.iew.lsq.thread0.memOrderViolation           40                       # Number of memory ordering violations
system.cpu.iew.lsq.thread0.squashedStores        12115                       # Number of stores squashed
system.cpu.iew.lsq.thread0.invAddrSwpfs             0                       # Number of software prefetches ignored due to an invalid address
system.cpu.iew.lsq.thread0.blockedLoads             0                       # Number of blocked loads due to partial load-store forwarding
system.cpu.iew.lsq.thread0.rescheduledLoads            0                       # Number of loads that were rescheduled
system.cpu.iew.lsq.thread0.cacheBlocked             0                       # Number of times an access to memory failed due to the cache being blocked
system.cpu.iew.iewIdleCycles                        0                       # Number of cycles IEW is idle
system.cpu.iew.iewSquashCycles                  56685                       # Number of cycles IEW is squashing
system.cpu.iew.iewBlockCycles               169275416                       # Number of cycles IEW is blocking
system.cpu.iew.iewUnblockCycles               3145027                       # Number of cycles IEW is unblocking
system.cpu.iew.iewDispatchedInsts           120203933                       # Number of instructions dispatched to IQ
system.cpu.iew.iewDispSquashedInsts                 8                       # Number of squashed instructions skipped by dispatch
system.cpu.iew.iewDispLoadInsts              18758762                       # Number of dispatched load instructions
system.cpu.iew.iewDispStoreInsts              9750834                       # Number of dispatched store instructions
system.cpu.iew.iewDispNonSpecInsts                  0                       # Number of dispatched non-speculative instructions
system.cpu.iew.iewIQFullEvents                 859535                       # Number of times the IQ has become full, causing a stall
system.cpu.iew.iewLSQFullEvents                 11714                       # Number of times the LSQ has become full, causing a stall
system.cpu.iew.memOrderViolationEvents             40                       # Number of memory order violations
system.cpu.iew.predictedTakenIncorrect             30                       # Number of branches that were predicted taken incorrectly
system.cpu.iew.predictedNotTakenIncorrect         2986                       # Number of branches that were predicted not taken incorrectly
system.cpu.iew.branchMispredicts                 3016                       # Number of branch mispredicts detected at execute
system.cpu.iew.iewExecutedInsts             120021852                       # Number of executed instructions
system.cpu.iew.iewExecLoadInsts              18699159                       # Number of load instructions executed
system.cpu.iew.iewExecSquashedInsts              3061                       # Number of squashed instructions skipped in execute
system.cpu.iew.exec_swp                             0                       # number of swp insts executed
system.cpu.iew.exec_nop                             0                       # number of nop insts executed
system.cpu.iew.exec_refs                     28440925                       # number of memory reference insts executed
system.cpu.iew.exec_branches                  1176848                       # Number of branches executed
system.cpu.iew.exec_stores                    9741766                       # Number of stores executed
system.cpu.iew.exec_rate                     0.383319                       # Inst execution rate
system.cpu.iew.wb_sent                      120012777                       # cumulative count of insts sent to commit
system.cpu.iew.wb_count                     120012777                       # cumulative count of insts written-back
system.cpu.iew.wb_producers                  90083462                       # num instructions producing a value
system.cpu.iew.wb_consumers                 177321857                       # num instructions consuming a value
system.cpu.iew.wb_penalized                         0                       # number of instrctions required to write to 'other' IQ
system.cpu.iew.wb_rate                       0.383290                       # insts written-back per cycle
system.cpu.iew.wb_fanout                     0.508022                       # average fanout of values written-back
system.cpu.iew.wb_penalized_rate                    0                       # fraction of instructions written-back that wrote to 'other' IQ
system.cpu.commit.commitSquashedInsts          218004                       # The number of squashed insts skipped by commit
system.cpu.commit.branchMispredicts              3016                       # The number of times a branch was mispredicted
system.cpu.commit.committed_per_cycle::samples    313054577                       # Number of insts commited each cycle
system.cpu.commit.committed_per_cycle::mean     0.383312                       # Number of insts commited each cycle
system.cpu.commit.committed_per_cycle::stdev     0.815374                       # Number of insts commited each cycle
system.cpu.commit.committed_per_cycle::underflows            0      0.00%      0.00% # Number of insts commited each cycle
system.cpu.commit.committed_per_cycle::0    232950681     74.41%     74.41% # Number of insts commited each cycle
system.cpu.commit.committed_per_cycle::1     59914627     19.14%     93.55% # Number of insts commited each cycle
system.cpu.commit.committed_per_cycle::2      7950888      2.54%     96.09% # Number of insts commited each cycle
system.cpu.commit.committed_per_cycle::3      4772296      1.52%     97.62% # Number of insts commited each cycle
system.cpu.commit.committed_per_cycle::4      7466085      2.38%    100.00% # Number of insts commited each cycle
system.cpu.commit.committed_per_cycle::overflows            0      0.00%    100.00% # Number of insts commited each cycle
system.cpu.commit.committed_per_cycle::min_value            0                       # Number of insts commited each cycle
system.cpu.commit.committed_per_cycle::max_value            4                       # Number of insts commited each cycle
system.cpu.commit.committed_per_cycle::total    313054577                       # Number of insts commited each cycle
system.cpu.commit.committedInsts            100000000                       # Number of instructions committed
system.cpu.commit.committedOps              119997631                       # Number of ops (including micro ops) committed
system.cpu.commit.swp_count                         0                       # Number of s/w prefetches committed
system.cpu.commit.refs                       28425693                       # Number of memory references committed
system.cpu.commit.loads                      18686975                       # Number of loads committed
system.cpu.commit.membars                           0                       # Number of memory barriers committed
system.cpu.commit.branches                    1176848                       # Number of branches committed
system.cpu.commit.fp_insts                  109994414                       # Number of committed floating point instructions.
system.cpu.commit.int_insts                  38128756                       # Number of committed integer instructions.
system.cpu.commit.function_calls                    0                       # Number of function calls committed.
system.cpu.commit.bw_lim_events               7466085                       # number cycles where commit BW limit reached
system.cpu.commit.bw_limited                        0                       # number of insts not committed due to BW limits
system.cpu.rob.rob_reads                    425804127                       # The number of ROB reads
system.cpu.rob.rob_writes                   240487959                       # The number of ROB writes
system.cpu.timesIdled                              15                       # Number of times that the entire CPU went into an idle state and unscheduled itself
system.cpu.idleCycles                            1085                       # Total number of cycles that the CPU has spent unscheduled due to idling
system.cpu.committedInsts                   100000000                       # Number of Instructions Simulated
system.cpu.committedOps                     119997631                       # Number of Ops (including micro ops) Simulated
system.cpu.committedInsts_total             100000000                       # Number of Instructions Simulated
system.cpu.cpi                               3.131123                       # CPI: Cycles Per Instruction
system.cpu.cpi_total                         3.131123                       # CPI: Total CPI of All Threads
system.cpu.ipc                               0.319374                       # IPC: Instructions Per Cycle
system.cpu.ipc_total                         0.319374                       # IPC: Total IPC of All Threads
system.cpu.int_regfile_reads                 68454185                       # number of integer regfile reads
system.cpu.int_regfile_writes                12416373                       # number of integer regfile writes
system.cpu.fp_regfile_reads                 235178494                       # number of floating regfile reads
system.cpu.fp_regfile_writes                100261828                       # number of floating regfile writes
system.cpu.misc_regfile_reads                33389064                       # number of misc regfile reads
system.cpu.itb_walker_cache.replacements            0                       # number of replacements
system.cpu.itb_walker_cache.tagsinuse               0                       # Cycle average of tags in use
system.cpu.itb_walker_cache.total_refs              0                       # Total number of references to valid blocks.
system.cpu.itb_walker_cache.sampled_refs            0                       # Sample count of references to valid blocks.
system.cpu.itb_walker_cache.avg_refs              nan                       # Average number of references to valid blocks.
system.cpu.itb_walker_cache.warmup_cycle            0                       # Cycle when the warmup percentage was hit.
system.cpu.itb_walker_cache.blocked_cycles::no_mshrs            0                       # number of cycles access was blocked
system.cpu.itb_walker_cache.blocked_cycles::no_targets            0                       # number of cycles access was blocked
system.cpu.itb_walker_cache.blocked::no_mshrs            0                       # number of cycles access was blocked
system.cpu.itb_walker_cache.blocked::no_targets            0                       # number of cycles access was blocked
system.cpu.itb_walker_cache.avg_blocked_cycles::no_mshrs          nan                       # average number of cycles each access was blocked
system.cpu.itb_walker_cache.avg_blocked_cycles::no_targets          nan                       # average number of cycles each access was blocked
system.cpu.itb_walker_cache.fast_writes             0                       # number of fast writes performed
system.cpu.itb_walker_cache.cache_copies            0                       # number of cache copies performed
system.cpu.itb_walker_cache.no_allocate_misses            0                       # Number of misses that were no-allocate
system.cpu.dtb_walker_cache.replacements            0                       # number of replacements
system.cpu.dtb_walker_cache.tagsinuse               0                       # Cycle average of tags in use
system.cpu.dtb_walker_cache.total_refs              0                       # Total number of references to valid blocks.
system.cpu.dtb_walker_cache.sampled_refs            0                       # Sample count of references to valid blocks.
system.cpu.dtb_walker_cache.avg_refs              nan                       # Average number of references to valid blocks.
system.cpu.dtb_walker_cache.warmup_cycle            0                       # Cycle when the warmup percentage was hit.
system.cpu.dtb_walker_cache.blocked_cycles::no_mshrs            0                       # number of cycles access was blocked
system.cpu.dtb_walker_cache.blocked_cycles::no_targets            0                       # number of cycles access was blocked
system.cpu.dtb_walker_cache.blocked::no_mshrs            0                       # number of cycles access was blocked
system.cpu.dtb_walker_cache.blocked::no_targets            0                       # number of cycles access was blocked
system.cpu.dtb_walker_cache.avg_blocked_cycles::no_mshrs          nan                       # average number of cycles each access was blocked
system.cpu.dtb_walker_cache.avg_blocked_cycles::no_targets          nan                       # average number of cycles each access was blocked
system.cpu.dtb_walker_cache.fast_writes             0                       # number of fast writes performed
system.cpu.dtb_walker_cache.cache_copies            0                       # number of cache copies performed
system.cpu.dtb_walker_cache.no_allocate_misses            0                       # Number of misses that were no-allocate
system.cpu.icache.replacements                      0                       # number of replacements
system.cpu.icache.tagsinuse                 32.999025                       # Cycle average of tags in use
system.cpu.icache.total_refs                  8437255                       # Total number of references to valid blocks.
system.cpu.icache.sampled_refs                     33                       # Sample count of references to valid blocks.
system.cpu.icache.avg_refs               255674.393939                       # Average number of references to valid blocks.
system.cpu.icache.warmup_cycle                      0                       # Cycle when the warmup percentage was hit.
system.cpu.icache.occ_blocks::cpu.inst      32.999025                       # Average occupied blocks per requestor
system.cpu.icache.occ_percent::cpu.inst      0.064451                       # Average percentage of cache occupancy
system.cpu.icache.occ_percent::total         0.064451                       # Average percentage of cache occupancy
system.cpu.icache.ReadReq_hits::cpu.inst      8437255                       # number of ReadReq hits
system.cpu.icache.ReadReq_hits::total         8437255                       # number of ReadReq hits
system.cpu.icache.demand_hits::cpu.inst       8437255                       # number of demand (read+write) hits
system.cpu.icache.demand_hits::total          8437255                       # number of demand (read+write) hits
system.cpu.icache.overall_hits::cpu.inst      8437255                       # number of overall hits
system.cpu.icache.overall_hits::total         8437255                       # number of overall hits
system.cpu.icache.ReadReq_misses::cpu.inst           33                       # number of ReadReq misses
system.cpu.icache.ReadReq_misses::total            33                       # number of ReadReq misses
system.cpu.icache.demand_misses::cpu.inst           33                       # number of demand (read+write) misses
system.cpu.icache.demand_misses::total             33                       # number of demand (read+write) misses
system.cpu.icache.overall_misses::cpu.inst           33                       # number of overall misses
system.cpu.icache.overall_misses::total            33                       # number of overall misses
system.cpu.icache.ReadReq_miss_latency::cpu.inst      1845500                       # number of ReadReq miss cycles
system.cpu.icache.ReadReq_miss_latency::total      1845500                       # number of ReadReq miss cycles
system.cpu.icache.demand_miss_latency::cpu.inst      1845500                       # number of demand (read+write) miss cycles
system.cpu.icache.demand_miss_latency::total      1845500                       # number of demand (read+write) miss cycles
system.cpu.icache.overall_miss_latency::cpu.inst      1845500                       # number of overall miss cycles
system.cpu.icache.overall_miss_latency::total      1845500                       # number of overall miss cycles
system.cpu.icache.ReadReq_accesses::cpu.inst      8437288                       # number of ReadReq accesses(hits+misses)
system.cpu.icache.ReadReq_accesses::total      8437288                       # number of ReadReq accesses(hits+misses)
system.cpu.icache.demand_accesses::cpu.inst      8437288                       # number of demand (read+write) accesses
system.cpu.icache.demand_accesses::total      8437288                       # number of demand (read+write) accesses
system.cpu.icache.overall_accesses::cpu.inst      8437288                       # number of overall (read+write) accesses
system.cpu.icache.overall_accesses::total      8437288                       # number of overall (read+write) accesses
system.cpu.icache.ReadReq_miss_rate::cpu.inst     0.000004                       # miss rate for ReadReq accesses
system.cpu.icache.ReadReq_miss_rate::total     0.000004                       # miss rate for ReadReq accesses
system.cpu.icache.demand_miss_rate::cpu.inst     0.000004                       # miss rate for demand accesses
system.cpu.icache.demand_miss_rate::total     0.000004                       # miss rate for demand accesses
system.cpu.icache.overall_miss_rate::cpu.inst     0.000004                       # miss rate for overall accesses
system.cpu.icache.overall_miss_rate::total     0.000004                       # miss rate for overall accesses
system.cpu.icache.ReadReq_avg_miss_latency::cpu.inst 55924.242424                       # average ReadReq miss latency
system.cpu.icache.ReadReq_avg_miss_latency::total 55924.242424                       # average ReadReq miss latency
system.cpu.icache.demand_avg_miss_latency::cpu.inst 55924.242424                       # average overall miss latency
system.cpu.icache.demand_avg_miss_latency::total 55924.242424                       # average overall miss latency
system.cpu.icache.overall_avg_miss_latency::cpu.inst 55924.242424                       # average overall miss latency
system.cpu.icache.overall_avg_miss_latency::total 55924.242424                       # average overall miss latency
system.cpu.icache.blocked_cycles::no_mshrs            0                       # number of cycles access was blocked
system.cpu.icache.blocked_cycles::no_targets            0                       # number of cycles access was blocked
system.cpu.icache.blocked::no_mshrs                 0                       # number of cycles access was blocked
system.cpu.icache.blocked::no_targets               0                       # number of cycles access was blocked
system.cpu.icache.avg_blocked_cycles::no_mshrs          nan                       # average number of cycles each access was blocked
system.cpu.icache.avg_blocked_cycles::no_targets          nan                       # average number of cycles each access was blocked
system.cpu.icache.fast_writes                       0                       # number of fast writes performed
system.cpu.icache.cache_copies                      0                       # number of cache copies performed
system.cpu.icache.ReadReq_mshr_misses::cpu.inst           33                       # number of ReadReq MSHR misses
system.cpu.icache.ReadReq_mshr_misses::total           33                       # number of ReadReq MSHR misses
system.cpu.icache.demand_mshr_misses::cpu.inst           33                       # number of demand (read+write) MSHR misses
system.cpu.icache.demand_mshr_misses::total           33                       # number of demand (read+write) MSHR misses
system.cpu.icache.overall_mshr_misses::cpu.inst           33                       # number of overall MSHR misses
system.cpu.icache.overall_mshr_misses::total           33                       # number of overall MSHR misses
system.cpu.icache.ReadReq_mshr_miss_latency::cpu.inst      1779500                       # number of ReadReq MSHR miss cycles
system.cpu.icache.ReadReq_mshr_miss_latency::total      1779500                       # number of ReadReq MSHR miss cycles
system.cpu.icache.demand_mshr_miss_latency::cpu.inst      1779500                       # number of demand (read+write) MSHR miss cycles
system.cpu.icache.demand_mshr_miss_latency::total      1779500                       # number of demand (read+write) MSHR miss cycles
system.cpu.icache.overall_mshr_miss_latency::cpu.inst      1779500                       # number of overall MSHR miss cycles
system.cpu.icache.overall_mshr_miss_latency::total      1779500                       # number of overall MSHR miss cycles
system.cpu.icache.ReadReq_mshr_miss_rate::cpu.inst     0.000004                       # mshr miss rate for ReadReq accesses
system.cpu.icache.ReadReq_mshr_miss_rate::total     0.000004                       # mshr miss rate for ReadReq accesses
system.cpu.icache.demand_mshr_miss_rate::cpu.inst     0.000004                       # mshr miss rate for demand accesses
system.cpu.icache.demand_mshr_miss_rate::total     0.000004                       # mshr miss rate for demand accesses
system.cpu.icache.overall_mshr_miss_rate::cpu.inst     0.000004                       # mshr miss rate for overall accesses
system.cpu.icache.overall_mshr_miss_rate::total     0.000004                       # mshr miss rate for overall accesses
system.cpu.icache.ReadReq_avg_mshr_miss_latency::cpu.inst 53924.242424                       # average ReadReq mshr miss latency
system.cpu.icache.ReadReq_avg_mshr_miss_latency::total 53924.242424                       # average ReadReq mshr miss latency
system.cpu.icache.demand_avg_mshr_miss_latency::cpu.inst 53924.242424                       # average overall mshr miss latency
system.cpu.icache.demand_avg_mshr_miss_latency::total 53924.242424                       # average overall mshr miss latency
system.cpu.icache.overall_avg_mshr_miss_latency::cpu.inst 53924.242424                       # average overall mshr miss latency
system.cpu.icache.overall_avg_mshr_miss_latency::total 53924.242424                       # average overall mshr miss latency
system.cpu.icache.no_allocate_misses                0                       # Number of misses that were no-allocate
system.cpu.dcache.replacements                4834744                       # number of replacements
system.cpu.dcache.tagsinuse                511.937611                       # Cycle average of tags in use
system.cpu.dcache.total_refs                 17355913                       # Total number of references to valid blocks.
system.cpu.dcache.sampled_refs                4835256                       # Sample count of references to valid blocks.
system.cpu.dcache.avg_refs                   3.589451                       # Average number of references to valid blocks.
system.cpu.dcache.warmup_cycle           696762656000                       # Cycle when the warmup percentage was hit.
system.cpu.dcache.occ_blocks::cpu.data     511.937611                       # Average occupied blocks per requestor
system.cpu.dcache.occ_percent::cpu.data      0.999878                       # Average percentage of cache occupancy
system.cpu.dcache.occ_percent::total         0.999878                       # Average percentage of cache occupancy
system.cpu.dcache.ReadReq_hits::cpu.data     11686607                       # number of ReadReq hits
system.cpu.dcache.ReadReq_hits::total        11686607                       # number of ReadReq hits
system.cpu.dcache.WriteReq_hits::cpu.data      5669306                       # number of WriteReq hits
system.cpu.dcache.WriteReq_hits::total        5669306                       # number of WriteReq hits
system.cpu.dcache.demand_hits::cpu.data      17355913                       # number of demand (read+write) hits
system.cpu.dcache.demand_hits::total         17355913                       # number of demand (read+write) hits
system.cpu.dcache.overall_hits::cpu.data     17355913                       # number of overall hits
system.cpu.dcache.overall_hits::total        17355913                       # number of overall hits
system.cpu.dcache.ReadReq_misses::cpu.data      2111965                       # number of ReadReq misses
system.cpu.dcache.ReadReq_misses::total       2111965                       # number of ReadReq misses
system.cpu.dcache.WriteReq_misses::cpu.data      4069384                       # number of WriteReq misses
system.cpu.dcache.WriteReq_misses::total      4069384                       # number of WriteReq misses
system.cpu.dcache.demand_misses::cpu.data      6181349                       # number of demand (read+write) misses
system.cpu.dcache.demand_misses::total        6181349                       # number of demand (read+write) misses
system.cpu.dcache.overall_misses::cpu.data      6181349                       # number of overall misses
system.cpu.dcache.overall_misses::total       6181349                       # number of overall misses
system.cpu.dcache.ReadReq_miss_latency::cpu.data 110586334500                       # number of ReadReq miss cycles
system.cpu.dcache.ReadReq_miss_latency::total 110586334500                       # number of ReadReq miss cycles
system.cpu.dcache.WriteReq_miss_latency::cpu.data 150464363000                       # number of WriteReq miss cycles
system.cpu.dcache.WriteReq_miss_latency::total 150464363000                       # number of WriteReq miss cycles
system.cpu.dcache.demand_miss_latency::cpu.data 261050697500                       # number of demand (read+write) miss cycles
system.cpu.dcache.demand_miss_latency::total 261050697500                       # number of demand (read+write) miss cycles
system.cpu.dcache.overall_miss_latency::cpu.data 261050697500                       # number of overall miss cycles
system.cpu.dcache.overall_miss_latency::total 261050697500                       # number of overall miss cycles
system.cpu.dcache.ReadReq_accesses::cpu.data     13798572                       # number of ReadReq accesses(hits+misses)
system.cpu.dcache.ReadReq_accesses::total     13798572                       # number of ReadReq accesses(hits+misses)
system.cpu.dcache.WriteReq_accesses::cpu.data      9738690                       # number of WriteReq accesses(hits+misses)
system.cpu.dcache.WriteReq_accesses::total      9738690                       # number of WriteReq accesses(hits+misses)
system.cpu.dcache.demand_accesses::cpu.data     23537262                       # number of demand (read+write) accesses
system.cpu.dcache.demand_accesses::total     23537262                       # number of demand (read+write) accesses
system.cpu.dcache.overall_accesses::cpu.data     23537262                       # number of overall (read+write) accesses
system.cpu.dcache.overall_accesses::total     23537262                       # number of overall (read+write) accesses
system.cpu.dcache.ReadReq_miss_rate::cpu.data     0.153057                       # miss rate for ReadReq accesses
system.cpu.dcache.ReadReq_miss_rate::total     0.153057                       # miss rate for ReadReq accesses
system.cpu.dcache.WriteReq_miss_rate::cpu.data     0.417857                       # miss rate for WriteReq accesses
system.cpu.dcache.WriteReq_miss_rate::total     0.417857                       # miss rate for WriteReq accesses
system.cpu.dcache.demand_miss_rate::cpu.data     0.262620                       # miss rate for demand accesses
system.cpu.dcache.demand_miss_rate::total     0.262620                       # miss rate for demand accesses
system.cpu.dcache.overall_miss_rate::cpu.data     0.262620                       # miss rate for overall accesses
system.cpu.dcache.overall_miss_rate::total     0.262620                       # miss rate for overall accesses
system.cpu.dcache.ReadReq_avg_miss_latency::cpu.data 52361.821574                       # average ReadReq miss latency
system.cpu.dcache.ReadReq_avg_miss_latency::total 52361.821574                       # average ReadReq miss latency
system.cpu.dcache.WriteReq_avg_miss_latency::cpu.data 36974.727133                       # average WriteReq miss latency
system.cpu.dcache.WriteReq_avg_miss_latency::total 36974.727133                       # average WriteReq miss latency
system.cpu.dcache.demand_avg_miss_latency::cpu.data 42231.994586                       # average overall miss latency
system.cpu.dcache.demand_avg_miss_latency::total 42231.994586                       # average overall miss latency
system.cpu.dcache.overall_avg_miss_latency::cpu.data 42231.994586                       # average overall miss latency
system.cpu.dcache.overall_avg_miss_latency::total 42231.994586                       # average overall miss latency
system.cpu.dcache.blocked_cycles::no_mshrs            0                       # number of cycles access was blocked
system.cpu.dcache.blocked_cycles::no_targets            0                       # number of cycles access was blocked
system.cpu.dcache.blocked::no_mshrs                 0                       # number of cycles access was blocked
system.cpu.dcache.blocked::no_targets               0                       # number of cycles access was blocked
system.cpu.dcache.avg_blocked_cycles::no_mshrs          nan                       # average number of cycles each access was blocked
system.cpu.dcache.avg_blocked_cycles::no_targets          nan                       # average number of cycles each access was blocked
system.cpu.dcache.fast_writes                       0                       # number of fast writes performed
system.cpu.dcache.cache_copies                      0                       # number of cache copies performed
system.cpu.dcache.writebacks::writebacks      4068946                       # number of writebacks
system.cpu.dcache.writebacks::total           4068946                       # number of writebacks
system.cpu.dcache.ReadReq_mshr_hits::cpu.data      1346092                       # number of ReadReq MSHR hits
system.cpu.dcache.ReadReq_mshr_hits::total      1346092                       # number of ReadReq MSHR hits
system.cpu.dcache.demand_mshr_hits::cpu.data      1346092                       # number of demand (read+write) MSHR hits
system.cpu.dcache.demand_mshr_hits::total      1346092                       # number of demand (read+write) MSHR hits
system.cpu.dcache.overall_mshr_hits::cpu.data      1346092                       # number of overall MSHR hits
system.cpu.dcache.overall_mshr_hits::total      1346092                       # number of overall MSHR hits
system.cpu.dcache.ReadReq_mshr_misses::cpu.data       765873                       # number of ReadReq MSHR misses
system.cpu.dcache.ReadReq_mshr_misses::total       765873                       # number of ReadReq MSHR misses
system.cpu.dcache.WriteReq_mshr_misses::cpu.data      4069384                       # number of WriteReq MSHR misses
system.cpu.dcache.WriteReq_mshr_misses::total      4069384                       # number of WriteReq MSHR misses
system.cpu.dcache.demand_mshr_misses::cpu.data      4835257                       # number of demand (read+write) MSHR misses
system.cpu.dcache.demand_mshr_misses::total      4835257                       # number of demand (read+write) MSHR misses
system.cpu.dcache.overall_mshr_misses::cpu.data      4835257                       # number of overall MSHR misses
system.cpu.dcache.overall_mshr_misses::total      4835257                       # number of overall MSHR misses
system.cpu.dcache.ReadReq_mshr_miss_latency::cpu.data  43128039500                       # number of ReadReq MSHR miss cycles
system.cpu.dcache.ReadReq_mshr_miss_latency::total  43128039500                       # number of ReadReq MSHR miss cycles
system.cpu.dcache.WriteReq_mshr_miss_latency::cpu.data 142325597000                       # number of WriteReq MSHR miss cycles
system.cpu.dcache.WriteReq_mshr_miss_latency::total 142325597000                       # number of WriteReq MSHR miss cycles
system.cpu.dcache.demand_mshr_miss_latency::cpu.data 185453636500                       # number of demand (read+write) MSHR miss cycles
system.cpu.dcache.demand_mshr_miss_latency::total 185453636500                       # number of demand (read+write) MSHR miss cycles
system.cpu.dcache.overall_mshr_miss_latency::cpu.data 185453636500                       # number of overall MSHR miss cycles
system.cpu.dcache.overall_mshr_miss_latency::total 185453636500                       # number of overall MSHR miss cycles
system.cpu.dcache.ReadReq_mshr_miss_rate::cpu.data     0.055504                       # mshr miss rate for ReadReq accesses
system.cpu.dcache.ReadReq_mshr_miss_rate::total     0.055504                       # mshr miss rate for ReadReq accesses
system.cpu.dcache.WriteReq_mshr_miss_rate::cpu.data     0.417857                       # mshr miss rate for WriteReq accesses
system.cpu.dcache.WriteReq_mshr_miss_rate::total     0.417857                       # mshr miss rate for WriteReq accesses
system.cpu.dcache.demand_mshr_miss_rate::cpu.data     0.205430                       # mshr miss rate for demand accesses
system.cpu.dcache.demand_mshr_miss_rate::total     0.205430                       # mshr miss rate for demand accesses
system.cpu.dcache.overall_mshr_miss_rate::cpu.data     0.205430                       # mshr miss rate for overall accesses
system.cpu.dcache.overall_mshr_miss_rate::total     0.205430                       # mshr miss rate for overall accesses
system.cpu.dcache.ReadReq_avg_mshr_miss_latency::cpu.data 56312.259996                       # average ReadReq mshr miss latency
system.cpu.dcache.ReadReq_avg_mshr_miss_latency::total 56312.259996                       # average ReadReq mshr miss latency
system.cpu.dcache.WriteReq_avg_mshr_miss_latency::cpu.data 34974.727625                       # average WriteReq mshr miss latency
system.cpu.dcache.WriteReq_avg_mshr_miss_latency::total 34974.727625                       # average WriteReq mshr miss latency
system.cpu.dcache.demand_avg_mshr_miss_latency::cpu.data 38354.452824                       # average overall mshr miss latency
system.cpu.dcache.demand_avg_mshr_miss_latency::total 38354.452824                       # average overall mshr miss latency
system.cpu.dcache.overall_avg_mshr_miss_latency::cpu.data 38354.452824                       # average overall mshr miss latency
system.cpu.dcache.overall_avg_mshr_miss_latency::total 38354.452824                       # average overall mshr miss latency
system.cpu.dcache.no_allocate_misses                0                       # Number of misses that were no-allocate

---------- End Simulation Statistics   ----------
