
---------- Begin Simulation Statistics ----------
sim_seconds                                  0.204699                       # Number of seconds simulated
sim_ticks                                204698508500                       # Number of ticks simulated
final_tick                               422365560500                       # Number of ticks from beginning of simulation (restored from checkpoints and never reset)
sim_freq                                 1000000000000                       # Frequency of simulated ticks
host_inst_rate                                  77612                       # Simulator instruction rate (inst/s)
host_op_rate                                   140132                       # Simulator op (including micro ops) rate (op/s)
host_tick_rate                              158870885                       # Simulator tick rate (ticks/s)
host_mem_usage                                2209632                       # Number of bytes of host memory used
host_seconds                                  1288.46                       # Real time elapsed on the host
sim_insts                                   100000000                       # Number of instructions simulated
sim_ops                                     180554536                       # Number of ops (including micro ops) simulated
system.physmem.bytes_read::cpu.inst             18048                       # Number of bytes read from this memory
system.physmem.bytes_read::cpu.data              5760                       # Number of bytes read from this memory
system.physmem.bytes_read::total                23808                       # Number of bytes read from this memory
system.physmem.bytes_inst_read::cpu.inst        18048                       # Number of instructions bytes read from this memory
system.physmem.bytes_inst_read::total           18048                       # Number of instructions bytes read from this memory
system.physmem.num_reads::cpu.inst                282                       # Number of read requests responded to by this memory
system.physmem.num_reads::cpu.data                 90                       # Number of read requests responded to by this memory
system.physmem.num_reads::total                   372                       # Number of read requests responded to by this memory
system.physmem.bw_read::cpu.inst                88169                       # Total read bandwidth from this memory (bytes/s)
system.physmem.bw_read::cpu.data                28139                       # Total read bandwidth from this memory (bytes/s)
system.physmem.bw_read::total                  116308                       # Total read bandwidth from this memory (bytes/s)
system.physmem.bw_inst_read::cpu.inst           88169                       # Instruction read bandwidth from this memory (bytes/s)
system.physmem.bw_inst_read::total              88169                       # Instruction read bandwidth from this memory (bytes/s)
system.physmem.bw_total::cpu.inst               88169                       # Total bandwidth to/from this memory (bytes/s)
system.physmem.bw_total::cpu.data               28139                       # Total bandwidth to/from this memory (bytes/s)
system.physmem.bw_total::total                 116308                       # Total bandwidth to/from this memory (bytes/s)
system.l2.replacements                              0                       # number of replacements
system.l2.tagsinuse                        326.059338                       # Cycle average of tags in use
system.l2.total_refs                           148670                       # Total number of references to valid blocks.
system.l2.sampled_refs                            353                       # Sample count of references to valid blocks.
system.l2.avg_refs                         421.161473                       # Average number of references to valid blocks.
system.l2.warmup_cycle                              0                       # Cycle when the warmup percentage was hit.
system.l2.occ_blocks::cpu.inst             257.800032                       # Average occupied blocks per requestor
system.l2.occ_blocks::cpu.data              68.259305                       # Average occupied blocks per requestor
system.l2.occ_percent::cpu.inst              0.015735                       # Average percentage of cache occupancy
system.l2.occ_percent::cpu.data              0.004166                       # Average percentage of cache occupancy
system.l2.occ_percent::total                 0.019901                       # Average percentage of cache occupancy
system.l2.ReadReq_hits::cpu.inst               148670                       # number of ReadReq hits
system.l2.ReadReq_hits::total                  148670                       # number of ReadReq hits
system.l2.demand_hits::cpu.inst                148670                       # number of demand (read+write) hits
system.l2.demand_hits::total                   148670                       # number of demand (read+write) hits
system.l2.overall_hits::cpu.inst               148670                       # number of overall hits
system.l2.overall_hits::total                  148670                       # number of overall hits
system.l2.ReadReq_misses::cpu.inst                282                       # number of ReadReq misses
system.l2.ReadReq_misses::cpu.data                 71                       # number of ReadReq misses
system.l2.ReadReq_misses::total                   353                       # number of ReadReq misses
system.l2.ReadExReq_misses::cpu.data               19                       # number of ReadExReq misses
system.l2.ReadExReq_misses::total                  19                       # number of ReadExReq misses
system.l2.demand_misses::cpu.inst                 282                       # number of demand (read+write) misses
system.l2.demand_misses::cpu.data                  90                       # number of demand (read+write) misses
system.l2.demand_misses::total                    372                       # number of demand (read+write) misses
system.l2.overall_misses::cpu.inst                282                       # number of overall misses
system.l2.overall_misses::cpu.data                 90                       # number of overall misses
system.l2.overall_misses::total                   372                       # number of overall misses
system.l2.ReadReq_miss_latency::cpu.inst     14934500                       # number of ReadReq miss cycles
system.l2.ReadReq_miss_latency::cpu.data      3798500                       # number of ReadReq miss cycles
system.l2.ReadReq_miss_latency::total        18733000                       # number of ReadReq miss cycles
system.l2.ReadExReq_miss_latency::cpu.data      1026000                       # number of ReadExReq miss cycles
system.l2.ReadExReq_miss_latency::total       1026000                       # number of ReadExReq miss cycles
system.l2.demand_miss_latency::cpu.inst      14934500                       # number of demand (read+write) miss cycles
system.l2.demand_miss_latency::cpu.data       4824500                       # number of demand (read+write) miss cycles
system.l2.demand_miss_latency::total         19759000                       # number of demand (read+write) miss cycles
system.l2.overall_miss_latency::cpu.inst     14934500                       # number of overall miss cycles
system.l2.overall_miss_latency::cpu.data      4824500                       # number of overall miss cycles
system.l2.overall_miss_latency::total        19759000                       # number of overall miss cycles
system.l2.ReadReq_accesses::cpu.inst           148952                       # number of ReadReq accesses(hits+misses)
system.l2.ReadReq_accesses::cpu.data               71                       # number of ReadReq accesses(hits+misses)
system.l2.ReadReq_accesses::total              149023                       # number of ReadReq accesses(hits+misses)
system.l2.ReadExReq_accesses::cpu.data             19                       # number of ReadExReq accesses(hits+misses)
system.l2.ReadExReq_accesses::total                19                       # number of ReadExReq accesses(hits+misses)
system.l2.demand_accesses::cpu.inst            148952                       # number of demand (read+write) accesses
system.l2.demand_accesses::cpu.data                90                       # number of demand (read+write) accesses
system.l2.demand_accesses::total               149042                       # number of demand (read+write) accesses
system.l2.overall_accesses::cpu.inst           148952                       # number of overall (read+write) accesses
system.l2.overall_accesses::cpu.data               90                       # number of overall (read+write) accesses
system.l2.overall_accesses::total              149042                       # number of overall (read+write) accesses
system.l2.ReadReq_miss_rate::cpu.inst        0.001893                       # miss rate for ReadReq accesses
system.l2.ReadReq_miss_rate::cpu.data               1                       # miss rate for ReadReq accesses
system.l2.ReadReq_miss_rate::total           0.002369                       # miss rate for ReadReq accesses
system.l2.ReadExReq_miss_rate::cpu.data             1                       # miss rate for ReadExReq accesses
system.l2.ReadExReq_miss_rate::total                1                       # miss rate for ReadExReq accesses
system.l2.demand_miss_rate::cpu.inst         0.001893                       # miss rate for demand accesses
system.l2.demand_miss_rate::cpu.data                1                       # miss rate for demand accesses
system.l2.demand_miss_rate::total            0.002496                       # miss rate for demand accesses
system.l2.overall_miss_rate::cpu.inst        0.001893                       # miss rate for overall accesses
system.l2.overall_miss_rate::cpu.data               1                       # miss rate for overall accesses
system.l2.overall_miss_rate::total           0.002496                       # miss rate for overall accesses
system.l2.ReadReq_avg_miss_latency::cpu.inst 52959.219858                       # average ReadReq miss latency
system.l2.ReadReq_avg_miss_latency::cpu.data        53500                       # average ReadReq miss latency
system.l2.ReadReq_avg_miss_latency::total 53067.988669                       # average ReadReq miss latency
system.l2.ReadExReq_avg_miss_latency::cpu.data        54000                       # average ReadExReq miss latency
system.l2.ReadExReq_avg_miss_latency::total        54000                       # average ReadExReq miss latency
system.l2.demand_avg_miss_latency::cpu.inst 52959.219858                       # average overall miss latency
system.l2.demand_avg_miss_latency::cpu.data 53605.555556                       # average overall miss latency
system.l2.demand_avg_miss_latency::total 53115.591398                       # average overall miss latency
system.l2.overall_avg_miss_latency::cpu.inst 52959.219858                       # average overall miss latency
system.l2.overall_avg_miss_latency::cpu.data 53605.555556                       # average overall miss latency
system.l2.overall_avg_miss_latency::total 53115.591398                       # average overall miss latency
system.l2.blocked_cycles::no_mshrs                  0                       # number of cycles access was blocked
system.l2.blocked_cycles::no_targets                0                       # number of cycles access was blocked
system.l2.blocked::no_mshrs                         0                       # number of cycles access was blocked
system.l2.blocked::no_targets                       0                       # number of cycles access was blocked
system.l2.avg_blocked_cycles::no_mshrs            nan                       # average number of cycles each access was blocked
system.l2.avg_blocked_cycles::no_targets          nan                       # average number of cycles each access was blocked
system.l2.fast_writes                               0                       # number of fast writes performed
system.l2.cache_copies                              0                       # number of cache copies performed
system.l2.ReadReq_mshr_misses::cpu.inst           282                       # number of ReadReq MSHR misses
system.l2.ReadReq_mshr_misses::cpu.data            71                       # number of ReadReq MSHR misses
system.l2.ReadReq_mshr_misses::total              353                       # number of ReadReq MSHR misses
system.l2.ReadExReq_mshr_misses::cpu.data           19                       # number of ReadExReq MSHR misses
system.l2.ReadExReq_mshr_misses::total             19                       # number of ReadExReq MSHR misses
system.l2.demand_mshr_misses::cpu.inst            282                       # number of demand (read+write) MSHR misses
system.l2.demand_mshr_misses::cpu.data             90                       # number of demand (read+write) MSHR misses
system.l2.demand_mshr_misses::total               372                       # number of demand (read+write) MSHR misses
system.l2.overall_mshr_misses::cpu.inst           282                       # number of overall MSHR misses
system.l2.overall_mshr_misses::cpu.data            90                       # number of overall MSHR misses
system.l2.overall_mshr_misses::total              372                       # number of overall MSHR misses
system.l2.ReadReq_mshr_miss_latency::cpu.inst     11494000                       # number of ReadReq MSHR miss cycles
system.l2.ReadReq_mshr_miss_latency::cpu.data      2930500                       # number of ReadReq MSHR miss cycles
system.l2.ReadReq_mshr_miss_latency::total     14424500                       # number of ReadReq MSHR miss cycles
system.l2.ReadExReq_mshr_miss_latency::cpu.data       794500                       # number of ReadExReq MSHR miss cycles
system.l2.ReadExReq_mshr_miss_latency::total       794500                       # number of ReadExReq MSHR miss cycles
system.l2.demand_mshr_miss_latency::cpu.inst     11494000                       # number of demand (read+write) MSHR miss cycles
system.l2.demand_mshr_miss_latency::cpu.data      3725000                       # number of demand (read+write) MSHR miss cycles
system.l2.demand_mshr_miss_latency::total     15219000                       # number of demand (read+write) MSHR miss cycles
system.l2.overall_mshr_miss_latency::cpu.inst     11494000                       # number of overall MSHR miss cycles
system.l2.overall_mshr_miss_latency::cpu.data      3725000                       # number of overall MSHR miss cycles
system.l2.overall_mshr_miss_latency::total     15219000                       # number of overall MSHR miss cycles
system.l2.ReadReq_mshr_miss_rate::cpu.inst     0.001893                       # mshr miss rate for ReadReq accesses
system.l2.ReadReq_mshr_miss_rate::cpu.data            1                       # mshr miss rate for ReadReq accesses
system.l2.ReadReq_mshr_miss_rate::total      0.002369                       # mshr miss rate for ReadReq accesses
system.l2.ReadExReq_mshr_miss_rate::cpu.data            1                       # mshr miss rate for ReadExReq accesses
system.l2.ReadExReq_mshr_miss_rate::total            1                       # mshr miss rate for ReadExReq accesses
system.l2.demand_mshr_miss_rate::cpu.inst     0.001893                       # mshr miss rate for demand accesses
system.l2.demand_mshr_miss_rate::cpu.data            1                       # mshr miss rate for demand accesses
system.l2.demand_mshr_miss_rate::total       0.002496                       # mshr miss rate for demand accesses
system.l2.overall_mshr_miss_rate::cpu.inst     0.001893                       # mshr miss rate for overall accesses
system.l2.overall_mshr_miss_rate::cpu.data            1                       # mshr miss rate for overall accesses
system.l2.overall_mshr_miss_rate::total      0.002496                       # mshr miss rate for overall accesses
system.l2.ReadReq_avg_mshr_miss_latency::cpu.inst 40758.865248                       # average ReadReq mshr miss latency
system.l2.ReadReq_avg_mshr_miss_latency::cpu.data 41274.647887                       # average ReadReq mshr miss latency
system.l2.ReadReq_avg_mshr_miss_latency::total 40862.606232                       # average ReadReq mshr miss latency
system.l2.ReadExReq_avg_mshr_miss_latency::cpu.data 41815.789474                       # average ReadExReq mshr miss latency
system.l2.ReadExReq_avg_mshr_miss_latency::total 41815.789474                       # average ReadExReq mshr miss latency
system.l2.demand_avg_mshr_miss_latency::cpu.inst 40758.865248                       # average overall mshr miss latency
system.l2.demand_avg_mshr_miss_latency::cpu.data 41388.888889                       # average overall mshr miss latency
system.l2.demand_avg_mshr_miss_latency::total 40911.290323                       # average overall mshr miss latency
system.l2.overall_avg_mshr_miss_latency::cpu.inst 40758.865248                       # average overall mshr miss latency
system.l2.overall_avg_mshr_miss_latency::cpu.data 41388.888889                       # average overall mshr miss latency
system.l2.overall_avg_mshr_miss_latency::total 40911.290323                       # average overall mshr miss latency
system.l2.no_allocate_misses                        0                       # Number of misses that were no-allocate
system.cpu.branchPred.lookups                19202834                       # Number of BP lookups
system.cpu.branchPred.condPredicted          19202834                       # Number of conditional branches predicted
system.cpu.branchPred.condIncorrect           1023924                       # Number of conditional branches incorrect
system.cpu.branchPred.BTBLookups             13106006                       # Number of BTB lookups
system.cpu.branchPred.BTBHits                12146082                       # Number of BTB hits
system.cpu.branchPred.BTBCorrect                    0                       # Number of correct BTB predictions (this stat may not work properly.
system.cpu.branchPred.BTBHitPct             92.675694                       # BTB Hit Percentage
system.cpu.branchPred.usedRAS                       0                       # Number of times the RAS was used to get a target.
system.cpu.branchPred.RASInCorrect                  0                       # Number of incorrect RAS predictions.
system.cpu.workload.num_syscalls                39699                       # Number of system calls
system.cpu.numCycles                        409397017                       # number of cpu cycles simulated
system.cpu.numWorkItemsStarted                      0                       # number of work items this cpu started
system.cpu.numWorkItemsCompleted                    0                       # number of work items this cpu completed
system.cpu.fetch.icacheStallCycles           18853065                       # Number of cycles fetch is stalled on an Icache miss
system.cpu.fetch.Insts                      101620607                       # Number of instructions fetch has processed
system.cpu.fetch.Branches                    19202834                       # Number of branches that fetch encountered
system.cpu.fetch.predictedBranches           12146082                       # Number of branches that fetch has predicted taken
system.cpu.fetch.Cycles                      98503830                       # Number of cycles fetch has run and was not squashing or blocked
system.cpu.fetch.SquashCycles                 2047848                       # Number of cycles fetch has spent squashing
system.cpu.fetch.BlockedCycles              290423691                       # Number of cycles fetch has spent blocked
system.cpu.fetch.CacheLines                  15304918                       # Number of cache lines fetched
system.cpu.fetch.IcacheSquashes                171214                       # Number of outstanding Icache misses that were squashed
system.cpu.fetch.rateDist::samples          408804510                       # Number of instructions fetched each cycle (Total)
system.cpu.fetch.rateDist::mean              0.448143                       # Number of instructions fetched each cycle (Total)
system.cpu.fetch.rateDist::stdev             0.820125                       # Number of instructions fetched each cycle (Total)
system.cpu.fetch.rateDist::underflows               0      0.00%      0.00% # Number of instructions fetched each cycle (Total)
system.cpu.fetch.rateDist::0                312532766     76.45%     76.45% # Number of instructions fetched each cycle (Total)
system.cpu.fetch.rateDist::1                  9340633      2.28%     78.74% # Number of instructions fetched each cycle (Total)
system.cpu.fetch.rateDist::2                 86931111     21.26%    100.00% # Number of instructions fetched each cycle (Total)
system.cpu.fetch.rateDist::overflows                0      0.00%    100.00% # Number of instructions fetched each cycle (Total)
system.cpu.fetch.rateDist::min_value                0                       # Number of instructions fetched each cycle (Total)
system.cpu.fetch.rateDist::max_value                2                       # Number of instructions fetched each cycle (Total)
system.cpu.fetch.rateDist::total            408804510                       # Number of instructions fetched each cycle (Total)
system.cpu.fetch.branchRate                  0.046905                       # Number of branch fetches per cycle
system.cpu.fetch.rate                        0.248220                       # Number of inst fetches per cycle
system.cpu.decode.IdleCycles                 83954947                       # Number of cycles decode is idle
system.cpu.decode.BlockedCycles             227903350                       # Number of cycles decode is blocked
system.cpu.decode.RunCycles                  70661165                       # Number of cycles decode is running
system.cpu.decode.UnblockCycles              25261121                       # Number of cycles decode is unblocking
system.cpu.decode.SquashCycles                1023924                       # Number of cycles decode is squashing
system.cpu.decode.DecodedInsts              182675360                       # Number of instructions handled by decode
system.cpu.rename.SquashCycles                1023924                       # Number of cycles rename is squashing
system.cpu.rename.IdleCycles                106750127                       # Number of cycles rename is idle
system.cpu.rename.BlockCycles               175337553                       # Number of cycles rename is blocking
system.cpu.rename.serializeStallCycles        1755189                       # count of cycles rename stalled for serializing inst
system.cpu.rename.RunCycles                  38540207                       # Number of cycles rename is running
system.cpu.rename.UnblockCycles              85397509                       # Number of cycles rename is unblocking
system.cpu.rename.RenamedInsts              181875184                       # Number of instructions processed by rename
system.cpu.rename.IQFullEvents               47214394                       # Number of times rename has blocked due to IQ full
system.cpu.rename.RenamedOperands           224681405                       # Number of destination operands rename has renamed
system.cpu.rename.RenameLookups             461579545                       # Number of register rename lookups that rename has made
system.cpu.rename.int_rename_lookups        445418410                       # Number of integer rename lookups
system.cpu.rename.fp_rename_lookups          16161135                       # Number of floating rename lookups
system.cpu.rename.CommittedMaps             222545930                       # Number of HB maps that are committed
system.cpu.rename.UndoneMaps                  2135467                       # Number of HB maps that are undone due to squashing
system.cpu.rename.serializingInsts             198292                       # count of serializing insts renamed
system.cpu.rename.tempSerializingInsts         198290                       # count of temporary serializing insts renamed
system.cpu.rename.skidInsts                 120672112                       # count of insts added to the skid buffer
system.cpu.memDep0.insertedLoads             19166854                       # Number of loads inserted to the mem dependence unit.
system.cpu.memDep0.insertedStores            12749944                       # Number of stores inserted to the mem dependence unit.
system.cpu.memDep0.conflictingLoads                 0                       # Number of conflicting loads.
system.cpu.memDep0.conflictingStores                0                       # Number of conflicting stores.
system.cpu.iq.iqInstsAdded                  180466119                       # Number of instructions added to the IQ (excludes non-spec)
system.cpu.iq.iqNonSpecInstsAdded              525393                       # Number of non-speculative instructions added to the IQ
system.cpu.iq.iqInstsIssued                 180971056                       # Number of instructions issued
system.cpu.iq.iqSquashedInstsIssued                80                       # Number of squashed instructions issued
system.cpu.iq.iqSquashedInstsExamined          139787                       # Number of squashed instructions iterated over during squash; mainly for profiling
system.cpu.iq.iqSquashedOperandsExamined       385791                       # Number of squashed operands that are examined and possibly removed from graph
system.cpu.iq.iqSquashedNonSpecRemoved           9918                       # Number of squashed non-spec instructions that were removed
system.cpu.iq.issued_per_cycle::samples     408804510                       # Number of insts issued each cycle
system.cpu.iq.issued_per_cycle::mean         0.442684                       # Number of insts issued each cycle
system.cpu.iq.issued_per_cycle::stdev        0.557460                       # Number of insts issued each cycle
system.cpu.iq.issued_per_cycle::underflows            0      0.00%      0.00% # Number of insts issued each cycle
system.cpu.iq.issued_per_cycle::0           240924726     58.93%     58.93% # Number of insts issued each cycle
system.cpu.iq.issued_per_cycle::1           154788512     37.86%     96.80% # Number of insts issued each cycle
system.cpu.iq.issued_per_cycle::2            13091272      3.20%    100.00% # Number of insts issued each cycle
system.cpu.iq.issued_per_cycle::overflows            0      0.00%    100.00% # Number of insts issued each cycle
system.cpu.iq.issued_per_cycle::min_value            0                       # Number of insts issued each cycle
system.cpu.iq.issued_per_cycle::max_value            2                       # Number of insts issued each cycle
system.cpu.iq.issued_per_cycle::total       408804510                       # Number of insts issued each cycle
system.cpu.iq.fu_full::No_OpClass                   0      0.00%      0.00% # attempts to use FU when none available
system.cpu.iq.fu_full::IntAlu                19526829     96.52%     96.52% # attempts to use FU when none available
system.cpu.iq.fu_full::IntMult                      0      0.00%     96.52% # attempts to use FU when none available
system.cpu.iq.fu_full::IntDiv                       0      0.00%     96.52% # attempts to use FU when none available
system.cpu.iq.fu_full::FloatAdd                704457      3.48%    100.00% # attempts to use FU when none available
system.cpu.iq.fu_full::FloatCmp                     0      0.00%    100.00% # attempts to use FU when none available
system.cpu.iq.fu_full::FloatCvt                     0      0.00%    100.00% # attempts to use FU when none available
system.cpu.iq.fu_full::FloatMult                    0      0.00%    100.00% # attempts to use FU when none available
system.cpu.iq.fu_full::FloatDiv                     0      0.00%    100.00% # attempts to use FU when none available
system.cpu.iq.fu_full::FloatSqrt                    0      0.00%    100.00% # attempts to use FU when none available
system.cpu.iq.fu_full::SimdAdd                      0      0.00%    100.00% # attempts to use FU when none available
system.cpu.iq.fu_full::SimdAddAcc                   0      0.00%    100.00% # attempts to use FU when none available
system.cpu.iq.fu_full::SimdAlu                      0      0.00%    100.00% # attempts to use FU when none available
system.cpu.iq.fu_full::SimdCmp                      0      0.00%    100.00% # attempts to use FU when none available
system.cpu.iq.fu_full::SimdCvt                      0      0.00%    100.00% # attempts to use FU when none available
system.cpu.iq.fu_full::SimdMisc                     0      0.00%    100.00% # attempts to use FU when none available
system.cpu.iq.fu_full::SimdMult                     0      0.00%    100.00% # attempts to use FU when none available
system.cpu.iq.fu_full::SimdMultAcc                  0      0.00%    100.00% # attempts to use FU when none available
system.cpu.iq.fu_full::SimdShift                    0      0.00%    100.00% # attempts to use FU when none available
system.cpu.iq.fu_full::SimdShiftAcc                 0      0.00%    100.00% # attempts to use FU when none available
system.cpu.iq.fu_full::SimdSqrt                     0      0.00%    100.00% # attempts to use FU when none available
system.cpu.iq.fu_full::SimdFloatAdd                 0      0.00%    100.00% # attempts to use FU when none available
system.cpu.iq.fu_full::SimdFloatAlu                 0      0.00%    100.00% # attempts to use FU when none available
system.cpu.iq.fu_full::SimdFloatCmp                 0      0.00%    100.00% # attempts to use FU when none available
system.cpu.iq.fu_full::SimdFloatCvt                 0      0.00%    100.00% # attempts to use FU when none available
system.cpu.iq.fu_full::SimdFloatDiv                 0      0.00%    100.00% # attempts to use FU when none available
system.cpu.iq.fu_full::SimdFloatMisc                0      0.00%    100.00% # attempts to use FU when none available
system.cpu.iq.fu_full::SimdFloatMult                0      0.00%    100.00% # attempts to use FU when none available
system.cpu.iq.fu_full::SimdFloatMultAcc             0      0.00%    100.00% # attempts to use FU when none available
system.cpu.iq.fu_full::SimdFloatSqrt                0      0.00%    100.00% # attempts to use FU when none available
system.cpu.iq.fu_full::MemRead                      0      0.00%    100.00% # attempts to use FU when none available
system.cpu.iq.fu_full::MemWrite                     0      0.00%    100.00% # attempts to use FU when none available
system.cpu.iq.fu_full::IprAccess                    0      0.00%    100.00% # attempts to use FU when none available
system.cpu.iq.fu_full::InstPrefetch                 0      0.00%    100.00% # attempts to use FU when none available
system.cpu.iq.FU_type_0::No_OpClass           1201442      0.66%      0.66% # Type of FU issued
system.cpu.iq.FU_type_0::IntAlu             143060493     79.05%     79.72% # Type of FU issued
system.cpu.iq.FU_type_0::IntMult                    0      0.00%     79.72% # Type of FU issued
system.cpu.iq.FU_type_0::IntDiv                     0      0.00%     79.72% # Type of FU issued
system.cpu.iq.FU_type_0::FloatAdd             4792325      2.65%     82.36% # Type of FU issued
system.cpu.iq.FU_type_0::FloatCmp                   0      0.00%     82.36% # Type of FU issued
system.cpu.iq.FU_type_0::FloatCvt                   0      0.00%     82.36% # Type of FU issued
system.cpu.iq.FU_type_0::FloatMult                  0      0.00%     82.36% # Type of FU issued
system.cpu.iq.FU_type_0::FloatDiv                   0      0.00%     82.36% # Type of FU issued
system.cpu.iq.FU_type_0::FloatSqrt                  0      0.00%     82.36% # Type of FU issued
system.cpu.iq.FU_type_0::SimdAdd                    0      0.00%     82.36% # Type of FU issued
system.cpu.iq.FU_type_0::SimdAddAcc                 0      0.00%     82.36% # Type of FU issued
system.cpu.iq.FU_type_0::SimdAlu                    0      0.00%     82.36% # Type of FU issued
system.cpu.iq.FU_type_0::SimdCmp                    0      0.00%     82.36% # Type of FU issued
system.cpu.iq.FU_type_0::SimdCvt                    0      0.00%     82.36% # Type of FU issued
system.cpu.iq.FU_type_0::SimdMisc                   0      0.00%     82.36% # Type of FU issued
system.cpu.iq.FU_type_0::SimdMult                   0      0.00%     82.36% # Type of FU issued
system.cpu.iq.FU_type_0::SimdMultAcc                0      0.00%     82.36% # Type of FU issued
system.cpu.iq.FU_type_0::SimdShift                  0      0.00%     82.36% # Type of FU issued
system.cpu.iq.FU_type_0::SimdShiftAcc               0      0.00%     82.36% # Type of FU issued
system.cpu.iq.FU_type_0::SimdSqrt                   0      0.00%     82.36% # Type of FU issued
system.cpu.iq.FU_type_0::SimdFloatAdd               0      0.00%     82.36% # Type of FU issued
system.cpu.iq.FU_type_0::SimdFloatAlu               0      0.00%     82.36% # Type of FU issued
system.cpu.iq.FU_type_0::SimdFloatCmp               0      0.00%     82.36% # Type of FU issued
system.cpu.iq.FU_type_0::SimdFloatCvt               0      0.00%     82.36% # Type of FU issued
system.cpu.iq.FU_type_0::SimdFloatDiv               0      0.00%     82.36% # Type of FU issued
system.cpu.iq.FU_type_0::SimdFloatMisc              0      0.00%     82.36% # Type of FU issued
system.cpu.iq.FU_type_0::SimdFloatMult              0      0.00%     82.36% # Type of FU issued
system.cpu.iq.FU_type_0::SimdFloatMultAcc            0      0.00%     82.36% # Type of FU issued
system.cpu.iq.FU_type_0::SimdFloatSqrt              0      0.00%     82.36% # Type of FU issued
system.cpu.iq.FU_type_0::MemRead             19166853     10.59%     92.95% # Type of FU issued
system.cpu.iq.FU_type_0::MemWrite            12749943      7.05%    100.00% # Type of FU issued
system.cpu.iq.FU_type_0::IprAccess                  0      0.00%    100.00% # Type of FU issued
system.cpu.iq.FU_type_0::InstPrefetch               0      0.00%    100.00% # Type of FU issued
system.cpu.iq.FU_type_0::total              180971056                       # Type of FU issued
system.cpu.iq.rate                           0.442043                       # Inst issue rate
system.cpu.iq.fu_busy_cnt                    20231286                       # FU busy when requested
system.cpu.iq.fu_busy_rate                   0.111793                       # FU busy rate (busy events/executed inst)
system.cpu.iq.int_inst_queue_reads          777687584                       # Number of integer instruction queue reads
system.cpu.iq.int_inst_queue_writes         174838307                       # Number of integer instruction queue writes
system.cpu.iq.int_inst_queue_wakeup_accesses    174384619                       # Number of integer instruction queue wakeup accesses
system.cpu.iq.fp_inst_queue_reads            13290403                       # Number of floating instruction queue reads
system.cpu.iq.fp_inst_queue_writes            6292992                       # Number of floating instruction queue writes
system.cpu.iq.fp_inst_queue_wakeup_accesses      6292954                       # Number of floating instruction queue wakeup accesses
system.cpu.iq.int_alu_accesses              193003470                       # Number of integer alu accesses
system.cpu.iq.fp_alu_accesses                 6997430                       # Number of floating point alu accesses
system.cpu.iew.lsq.thread0.forwLoads           218100                       # Number of loads that had data forwarded from stores
system.cpu.iew.lsq.thread0.invAddrLoads             0                       # Number of loads ignored due to an invalid address
system.cpu.iew.lsq.thread0.squashedLoads        98803                       # Number of loads squashed
system.cpu.iew.lsq.thread0.ignoredResponses            0                       # Number of memory responses ignored because the instruction is squashed
system.cpu.iew.lsq.thread0.memOrderViolation            0                       # Number of memory ordering violations
system.cpu.iew.lsq.thread0.squashedStores        24174                       # Number of stores squashed
system.cpu.iew.lsq.thread0.invAddrSwpfs             0                       # Number of software prefetches ignored due to an invalid address
system.cpu.iew.lsq.thread0.blockedLoads             0                       # Number of blocked loads due to partial load-store forwarding
system.cpu.iew.lsq.thread0.rescheduledLoads            0                       # Number of loads that were rescheduled
system.cpu.iew.lsq.thread0.cacheBlocked             0                       # Number of times an access to memory failed due to the cache being blocked
system.cpu.iew.iewIdleCycles                        0                       # Number of cycles IEW is idle
system.cpu.iew.iewSquashCycles                1023924                       # Number of cycles IEW is squashing
system.cpu.iew.iewBlockCycles                18318710                       # Number of cycles IEW is blocking
system.cpu.iew.iewUnblockCycles               7345928                       # Number of cycles IEW is unblocking
system.cpu.iew.iewDispatchedInsts           180991512                       # Number of instructions dispatched to IQ
system.cpu.iew.iewDispSquashedInsts            437586                       # Number of squashed instructions skipped by dispatch
system.cpu.iew.iewDispLoadInsts              19166854                       # Number of dispatched load instructions
system.cpu.iew.iewDispStoreInsts             12749944                       # Number of dispatched store instructions
system.cpu.iew.iewDispNonSpecInsts             515475                       # Number of dispatched non-speculative instructions
system.cpu.iew.iewIQFullEvents                4558624                       # Number of times the IQ has become full, causing a stall
system.cpu.iew.iewLSQFullEvents                     0                       # Number of times the LSQ has become full, causing a stall
system.cpu.iew.memOrderViolationEvents              0                       # Number of memory order violations
system.cpu.iew.predictedTakenIncorrect         735837                       # Number of branches that were predicted taken incorrectly
system.cpu.iew.predictedNotTakenIncorrect       288087                       # Number of branches that were predicted not taken incorrectly
system.cpu.iew.branchMispredicts              1023924                       # Number of branch mispredicts detected at execute
system.cpu.iew.iewExecutedInsts             180716175                       # Number of executed instructions
system.cpu.iew.iewExecLoadInsts              19106653                       # Number of load instructions executed
system.cpu.iew.iewExecSquashedInsts            254880                       # Number of squashed instructions skipped in execute
system.cpu.iew.exec_swp                             0                       # number of swp insts executed
system.cpu.iew.exec_nop                             0                       # number of nop insts executed
system.cpu.iew.exec_refs                     31856577                       # number of memory reference insts executed
system.cpu.iew.exec_branches                 19003199                       # Number of branches executed
system.cpu.iew.exec_stores                   12749924                       # Number of stores executed
system.cpu.iew.exec_rate                     0.441420                       # Inst execution rate
system.cpu.iew.wb_sent                      180677573                       # cumulative count of insts sent to commit
system.cpu.iew.wb_count                     180677573                       # cumulative count of insts written-back
system.cpu.iew.wb_producers                  34897210                       # num instructions producing a value
system.cpu.iew.wb_consumers                  37737421                       # num instructions consuming a value
system.cpu.iew.wb_penalized                         0                       # number of instrctions required to write to 'other' IQ
system.cpu.iew.wb_rate                       0.441326                       # insts written-back per cycle
system.cpu.iew.wb_fanout                     0.924738                       # average fanout of values written-back
system.cpu.iew.wb_penalized_rate                    0                       # fraction of instructions written-back that wrote to 'other' IQ
system.cpu.commit.commitSquashedInsts          436974                       # The number of squashed insts skipped by commit
system.cpu.commit.commitNonSpecStalls          515475                       # The number of times commit has been forced to stall to communicate backwards
system.cpu.commit.branchMispredicts           1023924                       # The number of times a branch was mispredicted
system.cpu.commit.committed_per_cycle::samples    407780586                       # Number of insts commited each cycle
system.cpu.commit.committed_per_cycle::mean     0.442774                       # Number of insts commited each cycle
system.cpu.commit.committed_per_cycle::stdev     0.547032                       # Number of insts commited each cycle
system.cpu.commit.committed_per_cycle::underflows            0      0.00%      0.00% # Number of insts commited each cycle
system.cpu.commit.committed_per_cycle::0    237934187     58.35%     58.35% # Number of insts commited each cycle
system.cpu.commit.committed_per_cycle::1    159138262     39.03%     97.37% # Number of insts commited each cycle
system.cpu.commit.committed_per_cycle::2     10708137      2.63%    100.00% # Number of insts commited each cycle
system.cpu.commit.committed_per_cycle::overflows            0      0.00%    100.00% # Number of insts commited each cycle
system.cpu.commit.committed_per_cycle::min_value            0                       # Number of insts commited each cycle
system.cpu.commit.committed_per_cycle::max_value            2                       # Number of insts commited each cycle
system.cpu.commit.committed_per_cycle::total    407780586                       # Number of insts commited each cycle
system.cpu.commit.committedInsts            100000000                       # Number of instructions committed
system.cpu.commit.committedOps              180554536                       # Number of ops (including micro ops) committed
system.cpu.commit.swp_count                         0                       # Number of s/w prefetches committed
system.cpu.commit.refs                       31793821                       # Number of memory references committed
system.cpu.commit.loads                      19068051                       # Number of loads committed
system.cpu.commit.membars                           0                       # Number of memory barriers committed
system.cpu.commit.branches                   19003199                       # Number of branches committed
system.cpu.commit.fp_insts                    6292951                       # Number of committed floating point instructions.
system.cpu.commit.int_insts                 175632238                       # Number of committed integer instructions.
system.cpu.commit.function_calls                    0                       # Number of function calls committed.
system.cpu.commit.bw_lim_events              10708137                       # number cycles where commit BW limit reached
system.cpu.commit.bw_limited                        0                       # number of insts not committed due to BW limits
system.cpu.rob.rob_reads                    578063959                       # The number of ROB reads
system.cpu.rob.rob_writes                   363006946                       # The number of ROB writes
system.cpu.timesIdled                          119250                       # Number of times that the entire CPU went into an idle state and unscheduled itself
system.cpu.idleCycles                          592507                       # Total number of cycles that the CPU has spent unscheduled due to idling
system.cpu.committedInsts                   100000000                       # Number of Instructions Simulated
system.cpu.committedOps                     180554536                       # Number of Ops (including micro ops) Simulated
system.cpu.committedInsts_total             100000000                       # Number of Instructions Simulated
system.cpu.cpi                               4.093970                       # CPI: Cycles Per Instruction
system.cpu.cpi_total                         4.093970                       # CPI: Total CPI of All Threads
system.cpu.ipc                               0.244262                       # IPC: Instructions Per Cycle
system.cpu.ipc_total                         0.244262                       # IPC: Total IPC of All Threads
system.cpu.int_regfile_reads                380518204                       # number of integer regfile reads
system.cpu.int_regfile_writes               217649767                       # number of integer regfile writes
system.cpu.fp_regfile_reads                  10577743                       # number of floating regfile reads
system.cpu.fp_regfile_writes                  5071801                       # number of floating regfile writes
system.cpu.misc_regfile_reads                68683373                       # number of misc regfile reads
system.cpu.misc_regfile_writes                 158592                       # number of misc regfile writes
system.cpu.itb_walker_cache.replacements            0                       # number of replacements
system.cpu.itb_walker_cache.tagsinuse               0                       # Cycle average of tags in use
system.cpu.itb_walker_cache.total_refs              0                       # Total number of references to valid blocks.
system.cpu.itb_walker_cache.sampled_refs            0                       # Sample count of references to valid blocks.
system.cpu.itb_walker_cache.avg_refs              nan                       # Average number of references to valid blocks.
system.cpu.itb_walker_cache.warmup_cycle            0                       # Cycle when the warmup percentage was hit.
system.cpu.itb_walker_cache.blocked_cycles::no_mshrs            0                       # number of cycles access was blocked
system.cpu.itb_walker_cache.blocked_cycles::no_targets            0                       # number of cycles access was blocked
system.cpu.itb_walker_cache.blocked::no_mshrs            0                       # number of cycles access was blocked
system.cpu.itb_walker_cache.blocked::no_targets            0                       # number of cycles access was blocked
system.cpu.itb_walker_cache.avg_blocked_cycles::no_mshrs          nan                       # average number of cycles each access was blocked
system.cpu.itb_walker_cache.avg_blocked_cycles::no_targets          nan                       # average number of cycles each access was blocked
system.cpu.itb_walker_cache.fast_writes             0                       # number of fast writes performed
system.cpu.itb_walker_cache.cache_copies            0                       # number of cache copies performed
system.cpu.itb_walker_cache.no_allocate_misses            0                       # Number of misses that were no-allocate
system.cpu.dtb_walker_cache.replacements            0                       # number of replacements
system.cpu.dtb_walker_cache.tagsinuse               0                       # Cycle average of tags in use
system.cpu.dtb_walker_cache.total_refs              0                       # Total number of references to valid blocks.
system.cpu.dtb_walker_cache.sampled_refs            0                       # Sample count of references to valid blocks.
system.cpu.dtb_walker_cache.avg_refs              nan                       # Average number of references to valid blocks.
system.cpu.dtb_walker_cache.warmup_cycle            0                       # Cycle when the warmup percentage was hit.
system.cpu.dtb_walker_cache.blocked_cycles::no_mshrs            0                       # number of cycles access was blocked
system.cpu.dtb_walker_cache.blocked_cycles::no_targets            0                       # number of cycles access was blocked
system.cpu.dtb_walker_cache.blocked::no_mshrs            0                       # number of cycles access was blocked
system.cpu.dtb_walker_cache.blocked::no_targets            0                       # number of cycles access was blocked
system.cpu.dtb_walker_cache.avg_blocked_cycles::no_mshrs          nan                       # average number of cycles each access was blocked
system.cpu.dtb_walker_cache.avg_blocked_cycles::no_targets          nan                       # average number of cycles each access was blocked
system.cpu.dtb_walker_cache.fast_writes             0                       # number of fast writes performed
system.cpu.dtb_walker_cache.cache_copies            0                       # number of cache copies performed
system.cpu.dtb_walker_cache.no_allocate_misses            0                       # Number of misses that were no-allocate
system.cpu.icache.replacements                 148696                       # number of replacements
system.cpu.icache.tagsinuse                240.467645                       # Cycle average of tags in use
system.cpu.icache.total_refs                 15155951                       # Total number of references to valid blocks.
system.cpu.icache.sampled_refs                 148952                       # Sample count of references to valid blocks.
system.cpu.icache.avg_refs                 101.750571                       # Average number of references to valid blocks.
system.cpu.icache.warmup_cycle                      0                       # Cycle when the warmup percentage was hit.
system.cpu.icache.occ_blocks::cpu.inst     240.467645                       # Average occupied blocks per requestor
system.cpu.icache.occ_percent::cpu.inst      0.469663                       # Average percentage of cache occupancy
system.cpu.icache.occ_percent::total         0.469663                       # Average percentage of cache occupancy
system.cpu.icache.ReadReq_hits::cpu.inst     15155951                       # number of ReadReq hits
system.cpu.icache.ReadReq_hits::total        15155951                       # number of ReadReq hits
system.cpu.icache.demand_hits::cpu.inst      15155951                       # number of demand (read+write) hits
system.cpu.icache.demand_hits::total         15155951                       # number of demand (read+write) hits
system.cpu.icache.overall_hits::cpu.inst     15155951                       # number of overall hits
system.cpu.icache.overall_hits::total        15155951                       # number of overall hits
system.cpu.icache.ReadReq_misses::cpu.inst       148967                       # number of ReadReq misses
system.cpu.icache.ReadReq_misses::total        148967                       # number of ReadReq misses
system.cpu.icache.demand_misses::cpu.inst       148967                       # number of demand (read+write) misses
system.cpu.icache.demand_misses::total         148967                       # number of demand (read+write) misses
system.cpu.icache.overall_misses::cpu.inst       148967                       # number of overall misses
system.cpu.icache.overall_misses::total        148967                       # number of overall misses
system.cpu.icache.ReadReq_miss_latency::cpu.inst   1949128000                       # number of ReadReq miss cycles
system.cpu.icache.ReadReq_miss_latency::total   1949128000                       # number of ReadReq miss cycles
system.cpu.icache.demand_miss_latency::cpu.inst   1949128000                       # number of demand (read+write) miss cycles
system.cpu.icache.demand_miss_latency::total   1949128000                       # number of demand (read+write) miss cycles
system.cpu.icache.overall_miss_latency::cpu.inst   1949128000                       # number of overall miss cycles
system.cpu.icache.overall_miss_latency::total   1949128000                       # number of overall miss cycles
system.cpu.icache.ReadReq_accesses::cpu.inst     15304918                       # number of ReadReq accesses(hits+misses)
system.cpu.icache.ReadReq_accesses::total     15304918                       # number of ReadReq accesses(hits+misses)
system.cpu.icache.demand_accesses::cpu.inst     15304918                       # number of demand (read+write) accesses
system.cpu.icache.demand_accesses::total     15304918                       # number of demand (read+write) accesses
system.cpu.icache.overall_accesses::cpu.inst     15304918                       # number of overall (read+write) accesses
system.cpu.icache.overall_accesses::total     15304918                       # number of overall (read+write) accesses
system.cpu.icache.ReadReq_miss_rate::cpu.inst     0.009733                       # miss rate for ReadReq accesses
system.cpu.icache.ReadReq_miss_rate::total     0.009733                       # miss rate for ReadReq accesses
system.cpu.icache.demand_miss_rate::cpu.inst     0.009733                       # miss rate for demand accesses
system.cpu.icache.demand_miss_rate::total     0.009733                       # miss rate for demand accesses
system.cpu.icache.overall_miss_rate::cpu.inst     0.009733                       # miss rate for overall accesses
system.cpu.icache.overall_miss_rate::total     0.009733                       # miss rate for overall accesses
system.cpu.icache.ReadReq_avg_miss_latency::cpu.inst 13084.293837                       # average ReadReq miss latency
system.cpu.icache.ReadReq_avg_miss_latency::total 13084.293837                       # average ReadReq miss latency
system.cpu.icache.demand_avg_miss_latency::cpu.inst 13084.293837                       # average overall miss latency
system.cpu.icache.demand_avg_miss_latency::total 13084.293837                       # average overall miss latency
system.cpu.icache.overall_avg_miss_latency::cpu.inst 13084.293837                       # average overall miss latency
system.cpu.icache.overall_avg_miss_latency::total 13084.293837                       # average overall miss latency
system.cpu.icache.blocked_cycles::no_mshrs            0                       # number of cycles access was blocked
system.cpu.icache.blocked_cycles::no_targets            0                       # number of cycles access was blocked
system.cpu.icache.blocked::no_mshrs                 0                       # number of cycles access was blocked
system.cpu.icache.blocked::no_targets               0                       # number of cycles access was blocked
system.cpu.icache.avg_blocked_cycles::no_mshrs          nan                       # average number of cycles each access was blocked
system.cpu.icache.avg_blocked_cycles::no_targets          nan                       # average number of cycles each access was blocked
system.cpu.icache.fast_writes                       0                       # number of fast writes performed
system.cpu.icache.cache_copies                      0                       # number of cache copies performed
system.cpu.icache.ReadReq_mshr_hits::cpu.inst           15                       # number of ReadReq MSHR hits
system.cpu.icache.ReadReq_mshr_hits::total           15                       # number of ReadReq MSHR hits
system.cpu.icache.demand_mshr_hits::cpu.inst           15                       # number of demand (read+write) MSHR hits
system.cpu.icache.demand_mshr_hits::total           15                       # number of demand (read+write) MSHR hits
system.cpu.icache.overall_mshr_hits::cpu.inst           15                       # number of overall MSHR hits
system.cpu.icache.overall_mshr_hits::total           15                       # number of overall MSHR hits
system.cpu.icache.ReadReq_mshr_misses::cpu.inst       148952                       # number of ReadReq MSHR misses
system.cpu.icache.ReadReq_mshr_misses::total       148952                       # number of ReadReq MSHR misses
system.cpu.icache.demand_mshr_misses::cpu.inst       148952                       # number of demand (read+write) MSHR misses
system.cpu.icache.demand_mshr_misses::total       148952                       # number of demand (read+write) MSHR misses
system.cpu.icache.overall_mshr_misses::cpu.inst       148952                       # number of overall MSHR misses
system.cpu.icache.overall_mshr_misses::total       148952                       # number of overall MSHR misses
system.cpu.icache.ReadReq_mshr_miss_latency::cpu.inst   1650586500                       # number of ReadReq MSHR miss cycles
system.cpu.icache.ReadReq_mshr_miss_latency::total   1650586500                       # number of ReadReq MSHR miss cycles
system.cpu.icache.demand_mshr_miss_latency::cpu.inst   1650586500                       # number of demand (read+write) MSHR miss cycles
system.cpu.icache.demand_mshr_miss_latency::total   1650586500                       # number of demand (read+write) MSHR miss cycles
system.cpu.icache.overall_mshr_miss_latency::cpu.inst   1650586500                       # number of overall MSHR miss cycles
system.cpu.icache.overall_mshr_miss_latency::total   1650586500                       # number of overall MSHR miss cycles
system.cpu.icache.ReadReq_mshr_miss_rate::cpu.inst     0.009732                       # mshr miss rate for ReadReq accesses
system.cpu.icache.ReadReq_mshr_miss_rate::total     0.009732                       # mshr miss rate for ReadReq accesses
system.cpu.icache.demand_mshr_miss_rate::cpu.inst     0.009732                       # mshr miss rate for demand accesses
system.cpu.icache.demand_mshr_miss_rate::total     0.009732                       # mshr miss rate for demand accesses
system.cpu.icache.overall_mshr_miss_rate::cpu.inst     0.009732                       # mshr miss rate for overall accesses
system.cpu.icache.overall_mshr_miss_rate::total     0.009732                       # mshr miss rate for overall accesses
system.cpu.icache.ReadReq_avg_mshr_miss_latency::cpu.inst 11081.331570                       # average ReadReq mshr miss latency
system.cpu.icache.ReadReq_avg_mshr_miss_latency::total 11081.331570                       # average ReadReq mshr miss latency
system.cpu.icache.demand_avg_mshr_miss_latency::cpu.inst 11081.331570                       # average overall mshr miss latency
system.cpu.icache.demand_avg_mshr_miss_latency::total 11081.331570                       # average overall mshr miss latency
system.cpu.icache.overall_avg_mshr_miss_latency::cpu.inst 11081.331570                       # average overall mshr miss latency
system.cpu.icache.overall_avg_mshr_miss_latency::total 11081.331570                       # average overall mshr miss latency
system.cpu.icache.no_allocate_misses                0                       # Number of misses that were no-allocate
system.cpu.dcache.replacements                      0                       # number of replacements
system.cpu.dcache.tagsinuse                 87.258616                       # Cycle average of tags in use
system.cpu.dcache.total_refs                 31614225                       # Total number of references to valid blocks.
system.cpu.dcache.sampled_refs                     90                       # Sample count of references to valid blocks.
system.cpu.dcache.avg_refs               351269.166667                       # Average number of references to valid blocks.
system.cpu.dcache.warmup_cycle                      0                       # Cycle when the warmup percentage was hit.
system.cpu.dcache.occ_blocks::cpu.data      87.258616                       # Average occupied blocks per requestor
system.cpu.dcache.occ_percent::cpu.data      0.170427                       # Average percentage of cache occupancy
system.cpu.dcache.occ_percent::total         0.170427                       # Average percentage of cache occupancy
system.cpu.dcache.ReadReq_hits::cpu.data     18888475                       # number of ReadReq hits
system.cpu.dcache.ReadReq_hits::total        18888475                       # number of ReadReq hits
system.cpu.dcache.WriteReq_hits::cpu.data     12725750                       # number of WriteReq hits
system.cpu.dcache.WriteReq_hits::total       12725750                       # number of WriteReq hits
system.cpu.dcache.demand_hits::cpu.data      31614225                       # number of demand (read+write) hits
system.cpu.dcache.demand_hits::total         31614225                       # number of demand (read+write) hits
system.cpu.dcache.overall_hits::cpu.data     31614225                       # number of overall hits
system.cpu.dcache.overall_hits::total        31614225                       # number of overall hits
system.cpu.dcache.ReadReq_misses::cpu.data           78                       # number of ReadReq misses
system.cpu.dcache.ReadReq_misses::total            78                       # number of ReadReq misses
system.cpu.dcache.WriteReq_misses::cpu.data           19                       # number of WriteReq misses
system.cpu.dcache.WriteReq_misses::total           19                       # number of WriteReq misses
system.cpu.dcache.demand_misses::cpu.data           97                       # number of demand (read+write) misses
system.cpu.dcache.demand_misses::total             97                       # number of demand (read+write) misses
system.cpu.dcache.overall_misses::cpu.data           97                       # number of overall misses
system.cpu.dcache.overall_misses::total            97                       # number of overall misses
system.cpu.dcache.ReadReq_miss_latency::cpu.data      4356500                       # number of ReadReq miss cycles
system.cpu.dcache.ReadReq_miss_latency::total      4356500                       # number of ReadReq miss cycles
system.cpu.dcache.WriteReq_miss_latency::cpu.data      1083000                       # number of WriteReq miss cycles
system.cpu.dcache.WriteReq_miss_latency::total      1083000                       # number of WriteReq miss cycles
system.cpu.dcache.demand_miss_latency::cpu.data      5439500                       # number of demand (read+write) miss cycles
system.cpu.dcache.demand_miss_latency::total      5439500                       # number of demand (read+write) miss cycles
system.cpu.dcache.overall_miss_latency::cpu.data      5439500                       # number of overall miss cycles
system.cpu.dcache.overall_miss_latency::total      5439500                       # number of overall miss cycles
system.cpu.dcache.ReadReq_accesses::cpu.data     18888553                       # number of ReadReq accesses(hits+misses)
system.cpu.dcache.ReadReq_accesses::total     18888553                       # number of ReadReq accesses(hits+misses)
system.cpu.dcache.WriteReq_accesses::cpu.data     12725769                       # number of WriteReq accesses(hits+misses)
system.cpu.dcache.WriteReq_accesses::total     12725769                       # number of WriteReq accesses(hits+misses)
system.cpu.dcache.demand_accesses::cpu.data     31614322                       # number of demand (read+write) accesses
system.cpu.dcache.demand_accesses::total     31614322                       # number of demand (read+write) accesses
system.cpu.dcache.overall_accesses::cpu.data     31614322                       # number of overall (read+write) accesses
system.cpu.dcache.overall_accesses::total     31614322                       # number of overall (read+write) accesses
system.cpu.dcache.ReadReq_miss_rate::cpu.data     0.000004                       # miss rate for ReadReq accesses
system.cpu.dcache.ReadReq_miss_rate::total     0.000004                       # miss rate for ReadReq accesses
system.cpu.dcache.WriteReq_miss_rate::cpu.data     0.000001                       # miss rate for WriteReq accesses
system.cpu.dcache.WriteReq_miss_rate::total     0.000001                       # miss rate for WriteReq accesses
system.cpu.dcache.demand_miss_rate::cpu.data     0.000003                       # miss rate for demand accesses
system.cpu.dcache.demand_miss_rate::total     0.000003                       # miss rate for demand accesses
system.cpu.dcache.overall_miss_rate::cpu.data     0.000003                       # miss rate for overall accesses
system.cpu.dcache.overall_miss_rate::total     0.000003                       # miss rate for overall accesses
system.cpu.dcache.ReadReq_avg_miss_latency::cpu.data 55852.564103                       # average ReadReq miss latency
system.cpu.dcache.ReadReq_avg_miss_latency::total 55852.564103                       # average ReadReq miss latency
system.cpu.dcache.WriteReq_avg_miss_latency::cpu.data        57000                       # average WriteReq miss latency
system.cpu.dcache.WriteReq_avg_miss_latency::total        57000                       # average WriteReq miss latency
system.cpu.dcache.demand_avg_miss_latency::cpu.data 56077.319588                       # average overall miss latency
system.cpu.dcache.demand_avg_miss_latency::total 56077.319588                       # average overall miss latency
system.cpu.dcache.overall_avg_miss_latency::cpu.data 56077.319588                       # average overall miss latency
system.cpu.dcache.overall_avg_miss_latency::total 56077.319588                       # average overall miss latency
system.cpu.dcache.blocked_cycles::no_mshrs            0                       # number of cycles access was blocked
system.cpu.dcache.blocked_cycles::no_targets            0                       # number of cycles access was blocked
system.cpu.dcache.blocked::no_mshrs                 0                       # number of cycles access was blocked
system.cpu.dcache.blocked::no_targets               0                       # number of cycles access was blocked
system.cpu.dcache.avg_blocked_cycles::no_mshrs          nan                       # average number of cycles each access was blocked
system.cpu.dcache.avg_blocked_cycles::no_targets          nan                       # average number of cycles each access was blocked
system.cpu.dcache.fast_writes                       0                       # number of fast writes performed
system.cpu.dcache.cache_copies                      0                       # number of cache copies performed
system.cpu.dcache.ReadReq_mshr_hits::cpu.data            7                       # number of ReadReq MSHR hits
system.cpu.dcache.ReadReq_mshr_hits::total            7                       # number of ReadReq MSHR hits
system.cpu.dcache.demand_mshr_hits::cpu.data            7                       # number of demand (read+write) MSHR hits
system.cpu.dcache.demand_mshr_hits::total            7                       # number of demand (read+write) MSHR hits
system.cpu.dcache.overall_mshr_hits::cpu.data            7                       # number of overall MSHR hits
system.cpu.dcache.overall_mshr_hits::total            7                       # number of overall MSHR hits
system.cpu.dcache.ReadReq_mshr_misses::cpu.data           71                       # number of ReadReq MSHR misses
system.cpu.dcache.ReadReq_mshr_misses::total           71                       # number of ReadReq MSHR misses
system.cpu.dcache.WriteReq_mshr_misses::cpu.data           19                       # number of WriteReq MSHR misses
system.cpu.dcache.WriteReq_mshr_misses::total           19                       # number of WriteReq MSHR misses
system.cpu.dcache.demand_mshr_misses::cpu.data           90                       # number of demand (read+write) MSHR misses
system.cpu.dcache.demand_mshr_misses::total           90                       # number of demand (read+write) MSHR misses
system.cpu.dcache.overall_mshr_misses::cpu.data           90                       # number of overall MSHR misses
system.cpu.dcache.overall_mshr_misses::total           90                       # number of overall MSHR misses
system.cpu.dcache.ReadReq_mshr_miss_latency::cpu.data      3870000                       # number of ReadReq MSHR miss cycles
system.cpu.dcache.ReadReq_mshr_miss_latency::total      3870000                       # number of ReadReq MSHR miss cycles
system.cpu.dcache.WriteReq_mshr_miss_latency::cpu.data      1045000                       # number of WriteReq MSHR miss cycles
system.cpu.dcache.WriteReq_mshr_miss_latency::total      1045000                       # number of WriteReq MSHR miss cycles
system.cpu.dcache.demand_mshr_miss_latency::cpu.data      4915000                       # number of demand (read+write) MSHR miss cycles
system.cpu.dcache.demand_mshr_miss_latency::total      4915000                       # number of demand (read+write) MSHR miss cycles
system.cpu.dcache.overall_mshr_miss_latency::cpu.data      4915000                       # number of overall MSHR miss cycles
system.cpu.dcache.overall_mshr_miss_latency::total      4915000                       # number of overall MSHR miss cycles
system.cpu.dcache.ReadReq_mshr_miss_rate::cpu.data     0.000004                       # mshr miss rate for ReadReq accesses
system.cpu.dcache.ReadReq_mshr_miss_rate::total     0.000004                       # mshr miss rate for ReadReq accesses
system.cpu.dcache.WriteReq_mshr_miss_rate::cpu.data     0.000001                       # mshr miss rate for WriteReq accesses
system.cpu.dcache.WriteReq_mshr_miss_rate::total     0.000001                       # mshr miss rate for WriteReq accesses
system.cpu.dcache.demand_mshr_miss_rate::cpu.data     0.000003                       # mshr miss rate for demand accesses
system.cpu.dcache.demand_mshr_miss_rate::total     0.000003                       # mshr miss rate for demand accesses
system.cpu.dcache.overall_mshr_miss_rate::cpu.data     0.000003                       # mshr miss rate for overall accesses
system.cpu.dcache.overall_mshr_miss_rate::total     0.000003                       # mshr miss rate for overall accesses
system.cpu.dcache.ReadReq_avg_mshr_miss_latency::cpu.data 54507.042254                       # average ReadReq mshr miss latency
system.cpu.dcache.ReadReq_avg_mshr_miss_latency::total 54507.042254                       # average ReadReq mshr miss latency
system.cpu.dcache.WriteReq_avg_mshr_miss_latency::cpu.data        55000                       # average WriteReq mshr miss latency
system.cpu.dcache.WriteReq_avg_mshr_miss_latency::total        55000                       # average WriteReq mshr miss latency
system.cpu.dcache.demand_avg_mshr_miss_latency::cpu.data 54611.111111                       # average overall mshr miss latency
system.cpu.dcache.demand_avg_mshr_miss_latency::total 54611.111111                       # average overall mshr miss latency
system.cpu.dcache.overall_avg_mshr_miss_latency::cpu.data 54611.111111                       # average overall mshr miss latency
system.cpu.dcache.overall_avg_mshr_miss_latency::total 54611.111111                       # average overall mshr miss latency
system.cpu.dcache.no_allocate_misses                0                       # Number of misses that were no-allocate

---------- End Simulation Statistics   ----------
