
---------- Begin Simulation Statistics ----------
sim_seconds                                  0.408205                       # Number of seconds simulated
sim_ticks                                408204706500                       # Number of ticks simulated
final_tick                               835405146500                       # Number of ticks from beginning of simulation (restored from checkpoints and never reset)
sim_freq                                 1000000000000                       # Frequency of simulated ticks
host_inst_rate                                  25282                       # Simulator instruction rate (inst/s)
host_op_rate                                    42382                       # Simulator op (including micro ops) rate (op/s)
host_tick_rate                              103202955                       # Simulator tick rate (ticks/s)
host_mem_usage                                2209008                       # Number of bytes of host memory used
host_seconds                                  3955.36                       # Real time elapsed on the host
sim_insts                                   100000000                       # Number of instructions simulated
sim_ops                                     167636858                       # Number of ops (including micro ops) simulated
system.physmem.bytes_read::cpu.inst            274304                       # Number of bytes read from this memory
system.physmem.bytes_read::cpu.data            400000                       # Number of bytes read from this memory
system.physmem.bytes_read::total               674304                       # Number of bytes read from this memory
system.physmem.bytes_inst_read::cpu.inst       274304                       # Number of instructions bytes read from this memory
system.physmem.bytes_inst_read::total          274304                       # Number of instructions bytes read from this memory
system.physmem.bytes_written::writebacks        40896                       # Number of bytes written to this memory
system.physmem.bytes_written::total             40896                       # Number of bytes written to this memory
system.physmem.num_reads::cpu.inst               4286                       # Number of read requests responded to by this memory
system.physmem.num_reads::cpu.data               6250                       # Number of read requests responded to by this memory
system.physmem.num_reads::total                 10536                       # Number of read requests responded to by this memory
system.physmem.num_writes::writebacks             639                       # Number of write requests responded to by this memory
system.physmem.num_writes::total                  639                       # Number of write requests responded to by this memory
system.physmem.bw_read::cpu.inst               671977                       # Total read bandwidth from this memory (bytes/s)
system.physmem.bw_read::cpu.data               979901                       # Total read bandwidth from this memory (bytes/s)
system.physmem.bw_read::total                 1651877                       # Total read bandwidth from this memory (bytes/s)
system.physmem.bw_inst_read::cpu.inst          671977                       # Instruction read bandwidth from this memory (bytes/s)
system.physmem.bw_inst_read::total             671977                       # Instruction read bandwidth from this memory (bytes/s)
system.physmem.bw_write::writebacks            100185                       # Write bandwidth from this memory (bytes/s)
system.physmem.bw_write::total                 100185                       # Write bandwidth from this memory (bytes/s)
system.physmem.bw_total::writebacks            100185                       # Total bandwidth to/from this memory (bytes/s)
system.physmem.bw_total::cpu.inst              671977                       # Total bandwidth to/from this memory (bytes/s)
system.physmem.bw_total::cpu.data              979901                       # Total bandwidth to/from this memory (bytes/s)
system.physmem.bw_total::total                1752062                       # Total bandwidth to/from this memory (bytes/s)
system.l2.replacements                           9679                       # number of replacements
system.l2.tagsinuse                        867.134033                       # Cycle average of tags in use
system.l2.total_refs                           390461                       # Total number of references to valid blocks.
system.l2.sampled_refs                          10560                       # Sample count of references to valid blocks.
system.l2.avg_refs                          36.975473                       # Average number of references to valid blocks.
system.l2.warmup_cycle                              0                       # Cycle when the warmup percentage was hit.
system.l2.occ_blocks::writebacks           270.950700                       # Average occupied blocks per requestor
system.l2.occ_blocks::cpu.inst             135.334680                       # Average occupied blocks per requestor
system.l2.occ_blocks::cpu.data             460.848653                       # Average occupied blocks per requestor
system.l2.occ_percent::writebacks            0.264600                       # Average percentage of cache occupancy
system.l2.occ_percent::cpu.inst              0.132163                       # Average percentage of cache occupancy
system.l2.occ_percent::cpu.data              0.450048                       # Average percentage of cache occupancy
system.l2.occ_percent::total                 0.846811                       # Average percentage of cache occupancy
system.l2.ReadReq_hits::cpu.inst                 3306                       # number of ReadReq hits
system.l2.ReadReq_hits::cpu.data               211907                       # number of ReadReq hits
system.l2.ReadReq_hits::total                  215213                       # number of ReadReq hits
system.l2.Writeback_hits::writebacks           230570                       # number of Writeback hits
system.l2.Writeback_hits::total                230570                       # number of Writeback hits
system.l2.ReadExReq_hits::cpu.data             186470                       # number of ReadExReq hits
system.l2.ReadExReq_hits::total                186470                       # number of ReadExReq hits
system.l2.demand_hits::cpu.inst                  3306                       # number of demand (read+write) hits
system.l2.demand_hits::cpu.data                398377                       # number of demand (read+write) hits
system.l2.demand_hits::total                   401683                       # number of demand (read+write) hits
system.l2.overall_hits::cpu.inst                 3306                       # number of overall hits
system.l2.overall_hits::cpu.data               398377                       # number of overall hits
system.l2.overall_hits::total                  401683                       # number of overall hits
system.l2.ReadReq_misses::cpu.inst               4286                       # number of ReadReq misses
system.l2.ReadReq_misses::cpu.data               5426                       # number of ReadReq misses
system.l2.ReadReq_misses::total                  9712                       # number of ReadReq misses
system.l2.ReadExReq_misses::cpu.data              824                       # number of ReadExReq misses
system.l2.ReadExReq_misses::total                 824                       # number of ReadExReq misses
system.l2.demand_misses::cpu.inst                4286                       # number of demand (read+write) misses
system.l2.demand_misses::cpu.data                6250                       # number of demand (read+write) misses
system.l2.demand_misses::total                  10536                       # number of demand (read+write) misses
system.l2.overall_misses::cpu.inst               4286                       # number of overall misses
system.l2.overall_misses::cpu.data               6250                       # number of overall misses
system.l2.overall_misses::total                 10536                       # number of overall misses
system.l2.ReadReq_miss_latency::cpu.inst    224116500                       # number of ReadReq miss cycles
system.l2.ReadReq_miss_latency::cpu.data    283453000                       # number of ReadReq miss cycles
system.l2.ReadReq_miss_latency::total       507569500                       # number of ReadReq miss cycles
system.l2.ReadExReq_miss_latency::cpu.data     43007500                       # number of ReadExReq miss cycles
system.l2.ReadExReq_miss_latency::total      43007500                       # number of ReadExReq miss cycles
system.l2.demand_miss_latency::cpu.inst     224116500                       # number of demand (read+write) miss cycles
system.l2.demand_miss_latency::cpu.data     326460500                       # number of demand (read+write) miss cycles
system.l2.demand_miss_latency::total        550577000                       # number of demand (read+write) miss cycles
system.l2.overall_miss_latency::cpu.inst    224116500                       # number of overall miss cycles
system.l2.overall_miss_latency::cpu.data    326460500                       # number of overall miss cycles
system.l2.overall_miss_latency::total       550577000                       # number of overall miss cycles
system.l2.ReadReq_accesses::cpu.inst             7592                       # number of ReadReq accesses(hits+misses)
system.l2.ReadReq_accesses::cpu.data           217333                       # number of ReadReq accesses(hits+misses)
system.l2.ReadReq_accesses::total              224925                       # number of ReadReq accesses(hits+misses)
system.l2.Writeback_accesses::writebacks       230570                       # number of Writeback accesses(hits+misses)
system.l2.Writeback_accesses::total            230570                       # number of Writeback accesses(hits+misses)
system.l2.ReadExReq_accesses::cpu.data         187294                       # number of ReadExReq accesses(hits+misses)
system.l2.ReadExReq_accesses::total            187294                       # number of ReadExReq accesses(hits+misses)
system.l2.demand_accesses::cpu.inst              7592                       # number of demand (read+write) accesses
system.l2.demand_accesses::cpu.data            404627                       # number of demand (read+write) accesses
system.l2.demand_accesses::total               412219                       # number of demand (read+write) accesses
system.l2.overall_accesses::cpu.inst             7592                       # number of overall (read+write) accesses
system.l2.overall_accesses::cpu.data           404627                       # number of overall (read+write) accesses
system.l2.overall_accesses::total              412219                       # number of overall (read+write) accesses
system.l2.ReadReq_miss_rate::cpu.inst        0.564542                       # miss rate for ReadReq accesses
system.l2.ReadReq_miss_rate::cpu.data        0.024966                       # miss rate for ReadReq accesses
system.l2.ReadReq_miss_rate::total           0.043179                       # miss rate for ReadReq accesses
system.l2.ReadExReq_miss_rate::cpu.data      0.004400                       # miss rate for ReadExReq accesses
system.l2.ReadExReq_miss_rate::total         0.004400                       # miss rate for ReadExReq accesses
system.l2.demand_miss_rate::cpu.inst         0.564542                       # miss rate for demand accesses
system.l2.demand_miss_rate::cpu.data         0.015446                       # miss rate for demand accesses
system.l2.demand_miss_rate::total            0.025559                       # miss rate for demand accesses
system.l2.overall_miss_rate::cpu.inst        0.564542                       # miss rate for overall accesses
system.l2.overall_miss_rate::cpu.data        0.015446                       # miss rate for overall accesses
system.l2.overall_miss_rate::total           0.025559                       # miss rate for overall accesses
system.l2.ReadReq_avg_miss_latency::cpu.inst 52290.363976                       # average ReadReq miss latency
system.l2.ReadReq_avg_miss_latency::cpu.data 52239.771471                       # average ReadReq miss latency
system.l2.ReadReq_avg_miss_latency::total 52262.098435                       # average ReadReq miss latency
system.l2.ReadExReq_avg_miss_latency::cpu.data 52193.567961                       # average ReadExReq miss latency
system.l2.ReadExReq_avg_miss_latency::total 52193.567961                       # average ReadExReq miss latency
system.l2.demand_avg_miss_latency::cpu.inst 52290.363976                       # average overall miss latency
system.l2.demand_avg_miss_latency::cpu.data 52233.680000                       # average overall miss latency
system.l2.demand_avg_miss_latency::total 52256.738800                       # average overall miss latency
system.l2.overall_avg_miss_latency::cpu.inst 52290.363976                       # average overall miss latency
system.l2.overall_avg_miss_latency::cpu.data 52233.680000                       # average overall miss latency
system.l2.overall_avg_miss_latency::total 52256.738800                       # average overall miss latency
system.l2.blocked_cycles::no_mshrs                  0                       # number of cycles access was blocked
system.l2.blocked_cycles::no_targets                0                       # number of cycles access was blocked
system.l2.blocked::no_mshrs                         0                       # number of cycles access was blocked
system.l2.blocked::no_targets                       0                       # number of cycles access was blocked
system.l2.avg_blocked_cycles::no_mshrs            nan                       # average number of cycles each access was blocked
system.l2.avg_blocked_cycles::no_targets          nan                       # average number of cycles each access was blocked
system.l2.fast_writes                               0                       # number of fast writes performed
system.l2.cache_copies                              0                       # number of cache copies performed
system.l2.writebacks::writebacks                  639                       # number of writebacks
system.l2.writebacks::total                       639                       # number of writebacks
system.l2.ReadReq_mshr_misses::cpu.inst          4286                       # number of ReadReq MSHR misses
system.l2.ReadReq_mshr_misses::cpu.data          5426                       # number of ReadReq MSHR misses
system.l2.ReadReq_mshr_misses::total             9712                       # number of ReadReq MSHR misses
system.l2.ReadExReq_mshr_misses::cpu.data          824                       # number of ReadExReq MSHR misses
system.l2.ReadExReq_mshr_misses::total            824                       # number of ReadExReq MSHR misses
system.l2.demand_mshr_misses::cpu.inst           4286                       # number of demand (read+write) MSHR misses
system.l2.demand_mshr_misses::cpu.data           6250                       # number of demand (read+write) MSHR misses
system.l2.demand_mshr_misses::total             10536                       # number of demand (read+write) MSHR misses
system.l2.overall_mshr_misses::cpu.inst          4286                       # number of overall MSHR misses
system.l2.overall_mshr_misses::cpu.data          6250                       # number of overall MSHR misses
system.l2.overall_mshr_misses::total            10536                       # number of overall MSHR misses
system.l2.ReadReq_mshr_miss_latency::cpu.inst    171561000                       # number of ReadReq MSHR miss cycles
system.l2.ReadReq_mshr_miss_latency::cpu.data    217156000                       # number of ReadReq MSHR miss cycles
system.l2.ReadReq_mshr_miss_latency::total    388717000                       # number of ReadReq MSHR miss cycles
system.l2.ReadExReq_mshr_miss_latency::cpu.data     32979000                       # number of ReadExReq MSHR miss cycles
system.l2.ReadExReq_mshr_miss_latency::total     32979000                       # number of ReadExReq MSHR miss cycles
system.l2.demand_mshr_miss_latency::cpu.inst    171561000                       # number of demand (read+write) MSHR miss cycles
system.l2.demand_mshr_miss_latency::cpu.data    250135000                       # number of demand (read+write) MSHR miss cycles
system.l2.demand_mshr_miss_latency::total    421696000                       # number of demand (read+write) MSHR miss cycles
system.l2.overall_mshr_miss_latency::cpu.inst    171561000                       # number of overall MSHR miss cycles
system.l2.overall_mshr_miss_latency::cpu.data    250135000                       # number of overall MSHR miss cycles
system.l2.overall_mshr_miss_latency::total    421696000                       # number of overall MSHR miss cycles
system.l2.ReadReq_mshr_miss_rate::cpu.inst     0.564542                       # mshr miss rate for ReadReq accesses
system.l2.ReadReq_mshr_miss_rate::cpu.data     0.024966                       # mshr miss rate for ReadReq accesses
system.l2.ReadReq_mshr_miss_rate::total      0.043179                       # mshr miss rate for ReadReq accesses
system.l2.ReadExReq_mshr_miss_rate::cpu.data     0.004400                       # mshr miss rate for ReadExReq accesses
system.l2.ReadExReq_mshr_miss_rate::total     0.004400                       # mshr miss rate for ReadExReq accesses
system.l2.demand_mshr_miss_rate::cpu.inst     0.564542                       # mshr miss rate for demand accesses
system.l2.demand_mshr_miss_rate::cpu.data     0.015446                       # mshr miss rate for demand accesses
system.l2.demand_mshr_miss_rate::total       0.025559                       # mshr miss rate for demand accesses
system.l2.overall_mshr_miss_rate::cpu.inst     0.564542                       # mshr miss rate for overall accesses
system.l2.overall_mshr_miss_rate::cpu.data     0.015446                       # mshr miss rate for overall accesses
system.l2.overall_mshr_miss_rate::total      0.025559                       # mshr miss rate for overall accesses
system.l2.ReadReq_avg_mshr_miss_latency::cpu.inst 40028.231451                       # average ReadReq mshr miss latency
system.l2.ReadReq_avg_mshr_miss_latency::cpu.data 40021.378548                       # average ReadReq mshr miss latency
system.l2.ReadReq_avg_mshr_miss_latency::total 40024.402801                       # average ReadReq mshr miss latency
system.l2.ReadExReq_avg_mshr_miss_latency::cpu.data 40023.058252                       # average ReadExReq mshr miss latency
system.l2.ReadExReq_avg_mshr_miss_latency::total 40023.058252                       # average ReadExReq mshr miss latency
system.l2.demand_avg_mshr_miss_latency::cpu.inst 40028.231451                       # average overall mshr miss latency
system.l2.demand_avg_mshr_miss_latency::cpu.data 40021.600000                       # average overall mshr miss latency
system.l2.demand_avg_mshr_miss_latency::total 40024.297646                       # average overall mshr miss latency
system.l2.overall_avg_mshr_miss_latency::cpu.inst 40028.231451                       # average overall mshr miss latency
system.l2.overall_avg_mshr_miss_latency::cpu.data 40021.600000                       # average overall mshr miss latency
system.l2.overall_avg_mshr_miss_latency::total 40024.297646                       # average overall mshr miss latency
system.l2.no_allocate_misses                        0                       # Number of misses that were no-allocate
system.cpu.branchPred.lookups                12626856                       # Number of BP lookups
system.cpu.branchPred.condPredicted          12626856                       # Number of conditional branches predicted
system.cpu.branchPred.condIncorrect           1087355                       # Number of conditional branches incorrect
system.cpu.branchPred.BTBLookups              7351939                       # Number of BTB lookups
system.cpu.branchPred.BTBHits                 6798860                       # Number of BTB hits
system.cpu.branchPred.BTBCorrect                    0                       # Number of correct BTB predictions (this stat may not work properly.
system.cpu.branchPred.BTBHitPct             92.477100                       # BTB Hit Percentage
system.cpu.branchPred.usedRAS                       0                       # Number of times the RAS was used to get a target.
system.cpu.branchPred.RASInCorrect                  0                       # Number of incorrect RAS predictions.
system.cpu.workload.num_syscalls                    0                       # Number of system calls
system.cpu.numCycles                        816409413                       # number of cpu cycles simulated
system.cpu.numWorkItemsStarted                      0                       # number of work items this cpu started
system.cpu.numWorkItemsCompleted                    0                       # number of work items this cpu completed
system.cpu.fetch.icacheStallCycles           15211388                       # Number of cycles fetch is stalled on an Icache miss
system.cpu.fetch.Insts                      101163832                       # Number of instructions fetch has processed
system.cpu.fetch.Branches                    12626856                       # Number of branches that fetch encountered
system.cpu.fetch.predictedBranches            6798860                       # Number of branches that fetch has predicted taken
system.cpu.fetch.Cycles                     174834986                       # Number of cycles fetch has run and was not squashing or blocked
system.cpu.fetch.SquashCycles                 2174710                       # Number of cycles fetch has spent squashing
system.cpu.fetch.BlockedCycles              621438195                       # Number of cycles fetch has spent blocked
system.cpu.fetch.CacheLines                  14403146                       # Number of cache lines fetched
system.cpu.fetch.IcacheSquashes                    46                       # Number of outstanding Icache misses that were squashed
system.cpu.fetch.rateDist::samples          812571924                       # Number of instructions fetched each cycle (Total)
system.cpu.fetch.rateDist::mean              0.207936                       # Number of instructions fetched each cycle (Total)
system.cpu.fetch.rateDist::stdev             0.405831                       # Number of instructions fetched each cycle (Total)
system.cpu.fetch.rateDist::underflows               0      0.00%      0.00% # Number of instructions fetched each cycle (Total)
system.cpu.fetch.rateDist::0                643609161     79.21%     79.21% # Number of instructions fetched each cycle (Total)
system.cpu.fetch.rateDist::1                168962763     20.79%    100.00% # Number of instructions fetched each cycle (Total)
system.cpu.fetch.rateDist::overflows                0      0.00%    100.00% # Number of instructions fetched each cycle (Total)
system.cpu.fetch.rateDist::min_value                0                       # Number of instructions fetched each cycle (Total)
system.cpu.fetch.rateDist::max_value                1                       # Number of instructions fetched each cycle (Total)
system.cpu.fetch.rateDist::total            812571924                       # Number of instructions fetched each cycle (Total)
system.cpu.fetch.branchRate                  0.015466                       # Number of branch fetches per cycle
system.cpu.fetch.rate                        0.123913                       # Number of inst fetches per cycle
system.cpu.decode.IdleCycles                138538161                       # Number of cycles decode is idle
system.cpu.decode.BlockedCycles             503992864                       # Number of cycles decode is blocked
system.cpu.decode.RunCycles                 124798675                       # Number of cycles decode is running
system.cpu.decode.UnblockCycles              44154866                       # Number of cycles decode is unblocking
system.cpu.decode.SquashCycles                1087355                       # Number of cycles decode is squashing
system.cpu.decode.DecodedInsts              168953544                       # Number of instructions handled by decode
system.cpu.rename.SquashCycles                1087355                       # Number of cycles rename is squashing
system.cpu.rename.IdleCycles                193270500                       # Number of cycles rename is idle
system.cpu.rename.BlockCycles               449692608                       # Number of cycles rename is blocking
system.cpu.rename.serializeStallCycles              0                       # count of cycles rename stalled for serializing inst
system.cpu.rename.RunCycles                  49727532                       # Number of cycles rename is running
system.cpu.rename.UnblockCycles             118793928                       # Number of cycles rename is unblocking
system.cpu.rename.RenamedInsts              168521461                       # Number of instructions processed by rename
system.cpu.rename.IQFullEvents               35163583                       # Number of times rename has blocked due to IQ full
system.cpu.rename.RenamedOperands           200556864                       # Number of destination operands rename has renamed
system.cpu.rename.RenameLookups             412949150                       # Number of register rename lookups that rename has made
system.cpu.rename.int_rename_lookups        255278885                       # Number of integer rename lookups
system.cpu.rename.fp_rename_lookups         157670265                       # Number of floating rename lookups
system.cpu.rename.CommittedMaps             199815754                       # Number of HB maps that are committed
system.cpu.rename.UndoneMaps                   741109                       # Number of HB maps that are undone due to squashing
system.cpu.rename.serializingInsts                  0                       # count of serializing insts renamed
system.cpu.rename.tempSerializingInsts              0                       # count of temporary serializing insts renamed
system.cpu.rename.skidInsts                 118803171                       # count of insts added to the skid buffer
system.cpu.memDep0.insertedLoads             28397629                       # Number of loads inserted to the mem dependence unit.
system.cpu.memDep0.insertedStores             7229871                       # Number of stores inserted to the mem dependence unit.
system.cpu.memDep0.conflictingLoads              5860                       # Number of conflicting loads.
system.cpu.memDep0.conflictingStores                0                       # Number of conflicting stores.
system.cpu.iq.iqInstsAdded                  167625138                       # Number of instructions added to the IQ (excludes non-spec)
system.cpu.iq.iqNonSpecInstsAdded               11720                       # Number of non-speculative instructions added to the IQ
system.cpu.iq.iqInstsIssued                 167636858                       # Number of instructions issued
system.cpu.iq.issued_per_cycle::samples     812571924                       # Number of insts issued each cycle
system.cpu.iq.issued_per_cycle::mean         0.206304                       # Number of insts issued each cycle
system.cpu.iq.issued_per_cycle::stdev        0.404651                       # Number of insts issued each cycle
system.cpu.iq.issued_per_cycle::underflows            0      0.00%      0.00% # Number of insts issued each cycle
system.cpu.iq.issued_per_cycle::0           644935066     79.37%     79.37% # Number of insts issued each cycle
system.cpu.iq.issued_per_cycle::1           167636858     20.63%    100.00% # Number of insts issued each cycle
system.cpu.iq.issued_per_cycle::overflows            0      0.00%    100.00% # Number of insts issued each cycle
system.cpu.iq.issued_per_cycle::min_value            0                       # Number of insts issued each cycle
system.cpu.iq.issued_per_cycle::max_value            1                       # Number of insts issued each cycle
system.cpu.iq.issued_per_cycle::total       812571924                       # Number of insts issued each cycle
system.cpu.iq.fu_full::No_OpClass                   0                       # attempts to use FU when none available
system.cpu.iq.fu_full::IntAlu                       0                       # attempts to use FU when none available
system.cpu.iq.fu_full::IntMult                      0                       # attempts to use FU when none available
system.cpu.iq.fu_full::IntDiv                       0                       # attempts to use FU when none available
system.cpu.iq.fu_full::FloatAdd                     0                       # attempts to use FU when none available
system.cpu.iq.fu_full::FloatCmp                     0                       # attempts to use FU when none available
system.cpu.iq.fu_full::FloatCvt                     0                       # attempts to use FU when none available
system.cpu.iq.fu_full::FloatMult                    0                       # attempts to use FU when none available
system.cpu.iq.fu_full::FloatDiv                     0                       # attempts to use FU when none available
system.cpu.iq.fu_full::FloatSqrt                    0                       # attempts to use FU when none available
system.cpu.iq.fu_full::SimdAdd                      0                       # attempts to use FU when none available
system.cpu.iq.fu_full::SimdAddAcc                   0                       # attempts to use FU when none available
system.cpu.iq.fu_full::SimdAlu                      0                       # attempts to use FU when none available
system.cpu.iq.fu_full::SimdCmp                      0                       # attempts to use FU when none available
system.cpu.iq.fu_full::SimdCvt                      0                       # attempts to use FU when none available
system.cpu.iq.fu_full::SimdMisc                     0                       # attempts to use FU when none available
system.cpu.iq.fu_full::SimdMult                     0                       # attempts to use FU when none available
system.cpu.iq.fu_full::SimdMultAcc                  0                       # attempts to use FU when none available
system.cpu.iq.fu_full::SimdShift                    0                       # attempts to use FU when none available
system.cpu.iq.fu_full::SimdShiftAcc                 0                       # attempts to use FU when none available
system.cpu.iq.fu_full::SimdSqrt                     0                       # attempts to use FU when none available
system.cpu.iq.fu_full::SimdFloatAdd                 0                       # attempts to use FU when none available
system.cpu.iq.fu_full::SimdFloatAlu                 0                       # attempts to use FU when none available
system.cpu.iq.fu_full::SimdFloatCmp                 0                       # attempts to use FU when none available
system.cpu.iq.fu_full::SimdFloatCvt                 0                       # attempts to use FU when none available
system.cpu.iq.fu_full::SimdFloatDiv                 0                       # attempts to use FU when none available
system.cpu.iq.fu_full::SimdFloatMisc                0                       # attempts to use FU when none available
system.cpu.iq.fu_full::SimdFloatMult                0                       # attempts to use FU when none available
system.cpu.iq.fu_full::SimdFloatMultAcc             0                       # attempts to use FU when none available
system.cpu.iq.fu_full::SimdFloatSqrt                0                       # attempts to use FU when none available
system.cpu.iq.fu_full::MemRead                      0                       # attempts to use FU when none available
system.cpu.iq.fu_full::MemWrite                     0                       # attempts to use FU when none available
system.cpu.iq.fu_full::IprAccess                    0                       # attempts to use FU when none available
system.cpu.iq.fu_full::InstPrefetch                 0                       # attempts to use FU when none available
system.cpu.iq.FU_type_0::No_OpClass            142936      0.09%      0.09% # Type of FU issued
system.cpu.iq.FU_type_0::IntAlu              97074319     57.91%     57.99% # Type of FU issued
system.cpu.iq.FU_type_0::IntMult                    0      0.00%     57.99% # Type of FU issued
system.cpu.iq.FU_type_0::IntDiv                     0      0.00%     57.99% # Type of FU issued
system.cpu.iq.FU_type_0::FloatAdd            34792103     20.75%     78.75% # Type of FU issued
system.cpu.iq.FU_type_0::FloatCmp                   0      0.00%     78.75% # Type of FU issued
system.cpu.iq.FU_type_0::FloatCvt                   0      0.00%     78.75% # Type of FU issued
system.cpu.iq.FU_type_0::FloatMult                  0      0.00%     78.75% # Type of FU issued
system.cpu.iq.FU_type_0::FloatDiv                   0      0.00%     78.75% # Type of FU issued
system.cpu.iq.FU_type_0::FloatSqrt                  0      0.00%     78.75% # Type of FU issued
system.cpu.iq.FU_type_0::SimdAdd                    0      0.00%     78.75% # Type of FU issued
system.cpu.iq.FU_type_0::SimdAddAcc                 0      0.00%     78.75% # Type of FU issued
system.cpu.iq.FU_type_0::SimdAlu                    0      0.00%     78.75% # Type of FU issued
system.cpu.iq.FU_type_0::SimdCmp                    0      0.00%     78.75% # Type of FU issued
system.cpu.iq.FU_type_0::SimdCvt                    0      0.00%     78.75% # Type of FU issued
system.cpu.iq.FU_type_0::SimdMisc                   0      0.00%     78.75% # Type of FU issued
system.cpu.iq.FU_type_0::SimdMult                   0      0.00%     78.75% # Type of FU issued
system.cpu.iq.FU_type_0::SimdMultAcc                0      0.00%     78.75% # Type of FU issued
system.cpu.iq.FU_type_0::SimdShift                  0      0.00%     78.75% # Type of FU issued
system.cpu.iq.FU_type_0::SimdShiftAcc               0      0.00%     78.75% # Type of FU issued
system.cpu.iq.FU_type_0::SimdSqrt                   0      0.00%     78.75% # Type of FU issued
system.cpu.iq.FU_type_0::SimdFloatAdd               0      0.00%     78.75% # Type of FU issued
system.cpu.iq.FU_type_0::SimdFloatAlu               0      0.00%     78.75% # Type of FU issued
system.cpu.iq.FU_type_0::SimdFloatCmp               0      0.00%     78.75% # Type of FU issued
system.cpu.iq.FU_type_0::SimdFloatCvt               0      0.00%     78.75% # Type of FU issued
system.cpu.iq.FU_type_0::SimdFloatDiv               0      0.00%     78.75% # Type of FU issued
system.cpu.iq.FU_type_0::SimdFloatMisc              0      0.00%     78.75% # Type of FU issued
system.cpu.iq.FU_type_0::SimdFloatMult              0      0.00%     78.75% # Type of FU issued
system.cpu.iq.FU_type_0::SimdFloatMultAcc            0      0.00%     78.75% # Type of FU issued
system.cpu.iq.FU_type_0::SimdFloatSqrt              0      0.00%     78.75% # Type of FU issued
system.cpu.iq.FU_type_0::MemRead             28397629     16.94%     95.69% # Type of FU issued
system.cpu.iq.FU_type_0::MemWrite             7229871      4.31%    100.00% # Type of FU issued
system.cpu.iq.FU_type_0::IprAccess                  0      0.00%    100.00% # Type of FU issued
system.cpu.iq.FU_type_0::InstPrefetch               0      0.00%    100.00% # Type of FU issued
system.cpu.iq.FU_type_0::total              167636858                       # Type of FU issued
system.cpu.iq.rate                           0.205334                       # Inst issue rate
system.cpu.iq.fu_busy_cnt                           0                       # FU busy when requested
system.cpu.iq.fu_busy_rate                          0                       # FU busy rate (busy events/executed inst)
system.cpu.iq.int_inst_queue_reads         1038477896                       # Number of integer instruction queue reads
system.cpu.iq.int_inst_queue_writes         112952986                       # Number of integer instruction queue writes
system.cpu.iq.int_inst_queue_wakeup_accesses    112952986                       # Number of integer instruction queue wakeup accesses
system.cpu.iq.fp_inst_queue_reads           109367744                       # Number of floating instruction queue reads
system.cpu.iq.fp_inst_queue_writes           54683872                       # Number of floating instruction queue writes
system.cpu.iq.fp_inst_queue_wakeup_accesses     54683872                       # Number of floating instruction queue wakeup accesses
system.cpu.iq.int_alu_accesses              112810050                       # Number of integer alu accesses
system.cpu.iq.fp_alu_accesses                54683872                       # Number of floating point alu accesses
system.cpu.iew.lsq.thread0.forwLoads           649439                       # Number of loads that had data forwarded from stores
system.cpu.iew.lsq.thread0.invAddrLoads             0                       # Number of loads ignored due to an invalid address
system.cpu.iew.lsq.thread0.squashedLoads            0                       # Number of loads squashed
system.cpu.iew.lsq.thread0.ignoredResponses            0                       # Number of memory responses ignored because the instruction is squashed
system.cpu.iew.lsq.thread0.memOrderViolation            0                       # Number of memory ordering violations
system.cpu.iew.lsq.thread0.squashedStores            0                       # Number of stores squashed
system.cpu.iew.lsq.thread0.invAddrSwpfs             0                       # Number of software prefetches ignored due to an invalid address
system.cpu.iew.lsq.thread0.blockedLoads             0                       # Number of blocked loads due to partial load-store forwarding
system.cpu.iew.lsq.thread0.rescheduledLoads            0                       # Number of loads that were rescheduled
system.cpu.iew.lsq.thread0.cacheBlocked             0                       # Number of times an access to memory failed due to the cache being blocked
system.cpu.iew.iewIdleCycles                        0                       # Number of cycles IEW is idle
system.cpu.iew.iewSquashCycles                1087355                       # Number of cycles IEW is squashing
system.cpu.iew.iewBlockCycles                94051586                       # Number of cycles IEW is blocking
system.cpu.iew.iewUnblockCycles              14791535                       # Number of cycles IEW is unblocking
system.cpu.iew.iewDispatchedInsts           167636858                       # Number of instructions dispatched to IQ
system.cpu.iew.iewDispSquashedInsts                 0                       # Number of squashed instructions skipped by dispatch
system.cpu.iew.iewDispLoadInsts              28397629                       # Number of dispatched load instructions
system.cpu.iew.iewDispStoreInsts              7229871                       # Number of dispatched store instructions
system.cpu.iew.iewDispNonSpecInsts                  0                       # Number of dispatched non-speculative instructions
system.cpu.iew.iewIQFullEvents                      0                       # Number of times the IQ has become full, causing a stall
system.cpu.iew.iewLSQFullEvents                     0                       # Number of times the LSQ has become full, causing a stall
system.cpu.iew.memOrderViolationEvents              0                       # Number of memory order violations
system.cpu.iew.predictedTakenIncorrect         998700                       # Number of branches that were predicted taken incorrectly
system.cpu.iew.predictedNotTakenIncorrect        88655                       # Number of branches that were predicted not taken incorrectly
system.cpu.iew.branchMispredicts              1087355                       # Number of branch mispredicts detected at execute
system.cpu.iew.iewExecutedInsts             167636858                       # Number of executed instructions
system.cpu.iew.iewExecLoadInsts              28397629                       # Number of load instructions executed
system.cpu.iew.iewExecSquashedInsts                 0                       # Number of squashed instructions skipped in execute
system.cpu.iew.exec_swp                             0                       # number of swp insts executed
system.cpu.iew.exec_nop                             0                       # number of nop insts executed
system.cpu.iew.exec_refs                     35627500                       # number of memory reference insts executed
system.cpu.iew.exec_branches                 12626847                       # Number of branches executed
system.cpu.iew.exec_stores                    7229871                       # Number of stores executed
system.cpu.iew.exec_rate                     0.205334                       # Inst execution rate
system.cpu.iew.wb_sent                      167636858                       # cumulative count of insts sent to commit
system.cpu.iew.wb_count                     167636858                       # cumulative count of insts written-back
system.cpu.iew.wb_producers                         0                       # num instructions producing a value
system.cpu.iew.wb_consumers                         0                       # num instructions consuming a value
system.cpu.iew.wb_penalized                         0                       # number of instrctions required to write to 'other' IQ
system.cpu.iew.wb_rate                       0.205334                       # insts written-back per cycle
system.cpu.iew.wb_fanout                          nan                       # average fanout of values written-back
system.cpu.iew.wb_penalized_rate                    0                       # fraction of instructions written-back that wrote to 'other' IQ
system.cpu.commit.commitNonSpecStalls           11720                       # The number of times commit has been forced to stall to communicate backwards
system.cpu.commit.branchMispredicts           1087355                       # The number of times a branch was mispredicted
system.cpu.commit.committed_per_cycle::samples    811484569                       # Number of insts commited each cycle
system.cpu.commit.committed_per_cycle::mean     0.206580                       # Number of insts commited each cycle
system.cpu.commit.committed_per_cycle::stdev     0.404852                       # Number of insts commited each cycle
system.cpu.commit.committed_per_cycle::underflows            0      0.00%      0.00% # Number of insts commited each cycle
system.cpu.commit.committed_per_cycle::0    643847711     79.34%     79.34% # Number of insts commited each cycle
system.cpu.commit.committed_per_cycle::1    167636858     20.66%    100.00% # Number of insts commited each cycle
system.cpu.commit.committed_per_cycle::overflows            0      0.00%    100.00% # Number of insts commited each cycle
system.cpu.commit.committed_per_cycle::min_value            0                       # Number of insts commited each cycle
system.cpu.commit.committed_per_cycle::max_value            1                       # Number of insts commited each cycle
system.cpu.commit.committed_per_cycle::total    811484569                       # Number of insts commited each cycle
system.cpu.commit.committedInsts            100000000                       # Number of instructions committed
system.cpu.commit.committedOps              167636858                       # Number of ops (including micro ops) committed
system.cpu.commit.swp_count                         0                       # Number of s/w prefetches committed
system.cpu.commit.refs                       35627500                       # Number of memory references committed
system.cpu.commit.loads                      28397629                       # Number of loads committed
system.cpu.commit.membars                       11720                       # Number of memory barriers committed
system.cpu.commit.branches                   12626847                       # Number of branches committed
system.cpu.commit.fp_insts                   54683872                       # Number of committed floating point instructions.
system.cpu.commit.int_insts                 135087430                       # Number of committed integer instructions.
system.cpu.commit.function_calls                    0                       # Number of function calls committed.
system.cpu.commit.bw_lim_events             167636858                       # number cycles where commit BW limit reached
system.cpu.commit.bw_limited                        0                       # number of insts not committed due to BW limits
system.cpu.rob.rob_reads                    811484569                       # The number of ROB reads
system.cpu.rob.rob_writes                   336361071                       # The number of ROB writes
system.cpu.timesIdled                          224119                       # Number of times that the entire CPU went into an idle state and unscheduled itself
system.cpu.idleCycles                         3837489                       # Total number of cycles that the CPU has spent unscheduled due to idling
system.cpu.committedInsts                   100000000                       # Number of Instructions Simulated
system.cpu.committedOps                     167636858                       # Number of Ops (including micro ops) Simulated
system.cpu.committedInsts_total             100000000                       # Number of Instructions Simulated
system.cpu.cpi                               8.164094                       # CPI: Cycles Per Instruction
system.cpu.cpi_total                         8.164094                       # CPI: Total CPI of All Threads
system.cpu.ipc                               0.122488                       # IPC: Instructions Per Cycle
system.cpu.ipc_total                         0.122488                       # IPC: Total IPC of All Threads
system.cpu.int_regfile_reads                250793335                       # number of integer regfile reads
system.cpu.int_regfile_writes               150676703                       # number of integer regfile writes
system.cpu.fp_regfile_reads                  92777704                       # number of floating regfile reads
system.cpu.fp_regfile_writes                 49139052                       # number of floating regfile writes
system.cpu.misc_regfile_reads                66836511                       # number of misc regfile reads
system.cpu.itb_walker_cache.replacements            0                       # number of replacements
system.cpu.itb_walker_cache.tagsinuse               0                       # Cycle average of tags in use
system.cpu.itb_walker_cache.total_refs              0                       # Total number of references to valid blocks.
system.cpu.itb_walker_cache.sampled_refs            0                       # Sample count of references to valid blocks.
system.cpu.itb_walker_cache.avg_refs              nan                       # Average number of references to valid blocks.
system.cpu.itb_walker_cache.warmup_cycle            0                       # Cycle when the warmup percentage was hit.
system.cpu.itb_walker_cache.blocked_cycles::no_mshrs            0                       # number of cycles access was blocked
system.cpu.itb_walker_cache.blocked_cycles::no_targets            0                       # number of cycles access was blocked
system.cpu.itb_walker_cache.blocked::no_mshrs            0                       # number of cycles access was blocked
system.cpu.itb_walker_cache.blocked::no_targets            0                       # number of cycles access was blocked
system.cpu.itb_walker_cache.avg_blocked_cycles::no_mshrs          nan                       # average number of cycles each access was blocked
system.cpu.itb_walker_cache.avg_blocked_cycles::no_targets          nan                       # average number of cycles each access was blocked
system.cpu.itb_walker_cache.fast_writes             0                       # number of fast writes performed
system.cpu.itb_walker_cache.cache_copies            0                       # number of cache copies performed
system.cpu.itb_walker_cache.no_allocate_misses            0                       # Number of misses that were no-allocate
system.cpu.dtb_walker_cache.replacements            0                       # number of replacements
system.cpu.dtb_walker_cache.tagsinuse               0                       # Cycle average of tags in use
system.cpu.dtb_walker_cache.total_refs              0                       # Total number of references to valid blocks.
system.cpu.dtb_walker_cache.sampled_refs            0                       # Sample count of references to valid blocks.
system.cpu.dtb_walker_cache.avg_refs              nan                       # Average number of references to valid blocks.
system.cpu.dtb_walker_cache.warmup_cycle            0                       # Cycle when the warmup percentage was hit.
system.cpu.dtb_walker_cache.blocked_cycles::no_mshrs            0                       # number of cycles access was blocked
system.cpu.dtb_walker_cache.blocked_cycles::no_targets            0                       # number of cycles access was blocked
system.cpu.dtb_walker_cache.blocked::no_mshrs            0                       # number of cycles access was blocked
system.cpu.dtb_walker_cache.blocked::no_targets            0                       # number of cycles access was blocked
system.cpu.dtb_walker_cache.avg_blocked_cycles::no_mshrs          nan                       # average number of cycles each access was blocked
system.cpu.dtb_walker_cache.avg_blocked_cycles::no_targets          nan                       # average number of cycles each access was blocked
system.cpu.dtb_walker_cache.fast_writes             0                       # number of fast writes performed
system.cpu.dtb_walker_cache.cache_copies            0                       # number of cache copies performed
system.cpu.dtb_walker_cache.no_allocate_misses            0                       # Number of misses that were no-allocate
system.cpu.icache.replacements                   7209                       # number of replacements
system.cpu.icache.tagsinuse                343.175431                       # Cycle average of tags in use
system.cpu.icache.total_refs                 14395545                       # Total number of references to valid blocks.
system.cpu.icache.sampled_refs                   7592                       # Sample count of references to valid blocks.
system.cpu.icache.avg_refs                1896.146602                       # Average number of references to valid blocks.
system.cpu.icache.warmup_cycle                      0                       # Cycle when the warmup percentage was hit.
system.cpu.icache.occ_blocks::cpu.inst     343.175431                       # Average occupied blocks per requestor
system.cpu.icache.occ_percent::cpu.inst      0.670265                       # Average percentage of cache occupancy
system.cpu.icache.occ_percent::total         0.670265                       # Average percentage of cache occupancy
system.cpu.icache.ReadReq_hits::cpu.inst     14395545                       # number of ReadReq hits
system.cpu.icache.ReadReq_hits::total        14395545                       # number of ReadReq hits
system.cpu.icache.demand_hits::cpu.inst      14395545                       # number of demand (read+write) hits
system.cpu.icache.demand_hits::total         14395545                       # number of demand (read+write) hits
system.cpu.icache.overall_hits::cpu.inst     14395545                       # number of overall hits
system.cpu.icache.overall_hits::total        14395545                       # number of overall hits
system.cpu.icache.ReadReq_misses::cpu.inst         7601                       # number of ReadReq misses
system.cpu.icache.ReadReq_misses::total          7601                       # number of ReadReq misses
system.cpu.icache.demand_misses::cpu.inst         7601                       # number of demand (read+write) misses
system.cpu.icache.demand_misses::total           7601                       # number of demand (read+write) misses
system.cpu.icache.overall_misses::cpu.inst         7601                       # number of overall misses
system.cpu.icache.overall_misses::total          7601                       # number of overall misses
system.cpu.icache.ReadReq_miss_latency::cpu.inst    280395500                       # number of ReadReq miss cycles
system.cpu.icache.ReadReq_miss_latency::total    280395500                       # number of ReadReq miss cycles
system.cpu.icache.demand_miss_latency::cpu.inst    280395500                       # number of demand (read+write) miss cycles
system.cpu.icache.demand_miss_latency::total    280395500                       # number of demand (read+write) miss cycles
system.cpu.icache.overall_miss_latency::cpu.inst    280395500                       # number of overall miss cycles
system.cpu.icache.overall_miss_latency::total    280395500                       # number of overall miss cycles
system.cpu.icache.ReadReq_accesses::cpu.inst     14403146                       # number of ReadReq accesses(hits+misses)
system.cpu.icache.ReadReq_accesses::total     14403146                       # number of ReadReq accesses(hits+misses)
system.cpu.icache.demand_accesses::cpu.inst     14403146                       # number of demand (read+write) accesses
system.cpu.icache.demand_accesses::total     14403146                       # number of demand (read+write) accesses
system.cpu.icache.overall_accesses::cpu.inst     14403146                       # number of overall (read+write) accesses
system.cpu.icache.overall_accesses::total     14403146                       # number of overall (read+write) accesses
system.cpu.icache.ReadReq_miss_rate::cpu.inst     0.000528                       # miss rate for ReadReq accesses
system.cpu.icache.ReadReq_miss_rate::total     0.000528                       # miss rate for ReadReq accesses
system.cpu.icache.demand_miss_rate::cpu.inst     0.000528                       # miss rate for demand accesses
system.cpu.icache.demand_miss_rate::total     0.000528                       # miss rate for demand accesses
system.cpu.icache.overall_miss_rate::cpu.inst     0.000528                       # miss rate for overall accesses
system.cpu.icache.overall_miss_rate::total     0.000528                       # miss rate for overall accesses
system.cpu.icache.ReadReq_avg_miss_latency::cpu.inst 36889.290883                       # average ReadReq miss latency
system.cpu.icache.ReadReq_avg_miss_latency::total 36889.290883                       # average ReadReq miss latency
system.cpu.icache.demand_avg_miss_latency::cpu.inst 36889.290883                       # average overall miss latency
system.cpu.icache.demand_avg_miss_latency::total 36889.290883                       # average overall miss latency
system.cpu.icache.overall_avg_miss_latency::cpu.inst 36889.290883                       # average overall miss latency
system.cpu.icache.overall_avg_miss_latency::total 36889.290883                       # average overall miss latency
system.cpu.icache.blocked_cycles::no_mshrs            0                       # number of cycles access was blocked
system.cpu.icache.blocked_cycles::no_targets            0                       # number of cycles access was blocked
system.cpu.icache.blocked::no_mshrs                 0                       # number of cycles access was blocked
system.cpu.icache.blocked::no_targets               0                       # number of cycles access was blocked
system.cpu.icache.avg_blocked_cycles::no_mshrs          nan                       # average number of cycles each access was blocked
system.cpu.icache.avg_blocked_cycles::no_targets          nan                       # average number of cycles each access was blocked
system.cpu.icache.fast_writes                       0                       # number of fast writes performed
system.cpu.icache.cache_copies                      0                       # number of cache copies performed
system.cpu.icache.ReadReq_mshr_hits::cpu.inst            9                       # number of ReadReq MSHR hits
system.cpu.icache.ReadReq_mshr_hits::total            9                       # number of ReadReq MSHR hits
system.cpu.icache.demand_mshr_hits::cpu.inst            9                       # number of demand (read+write) MSHR hits
system.cpu.icache.demand_mshr_hits::total            9                       # number of demand (read+write) MSHR hits
system.cpu.icache.overall_mshr_hits::cpu.inst            9                       # number of overall MSHR hits
system.cpu.icache.overall_mshr_hits::total            9                       # number of overall MSHR hits
system.cpu.icache.ReadReq_mshr_misses::cpu.inst         7592                       # number of ReadReq MSHR misses
system.cpu.icache.ReadReq_mshr_misses::total         7592                       # number of ReadReq MSHR misses
system.cpu.icache.demand_mshr_misses::cpu.inst         7592                       # number of demand (read+write) MSHR misses
system.cpu.icache.demand_mshr_misses::total         7592                       # number of demand (read+write) MSHR misses
system.cpu.icache.overall_mshr_misses::cpu.inst         7592                       # number of overall MSHR misses
system.cpu.icache.overall_mshr_misses::total         7592                       # number of overall MSHR misses
system.cpu.icache.ReadReq_mshr_miss_latency::cpu.inst    264771000                       # number of ReadReq MSHR miss cycles
system.cpu.icache.ReadReq_mshr_miss_latency::total    264771000                       # number of ReadReq MSHR miss cycles
system.cpu.icache.demand_mshr_miss_latency::cpu.inst    264771000                       # number of demand (read+write) MSHR miss cycles
system.cpu.icache.demand_mshr_miss_latency::total    264771000                       # number of demand (read+write) MSHR miss cycles
system.cpu.icache.overall_mshr_miss_latency::cpu.inst    264771000                       # number of overall MSHR miss cycles
system.cpu.icache.overall_mshr_miss_latency::total    264771000                       # number of overall MSHR miss cycles
system.cpu.icache.ReadReq_mshr_miss_rate::cpu.inst     0.000527                       # mshr miss rate for ReadReq accesses
system.cpu.icache.ReadReq_mshr_miss_rate::total     0.000527                       # mshr miss rate for ReadReq accesses
system.cpu.icache.demand_mshr_miss_rate::cpu.inst     0.000527                       # mshr miss rate for demand accesses
system.cpu.icache.demand_mshr_miss_rate::total     0.000527                       # mshr miss rate for demand accesses
system.cpu.icache.overall_mshr_miss_rate::cpu.inst     0.000527                       # mshr miss rate for overall accesses
system.cpu.icache.overall_mshr_miss_rate::total     0.000527                       # mshr miss rate for overall accesses
system.cpu.icache.ReadReq_avg_mshr_miss_latency::cpu.inst        34875                       # average ReadReq mshr miss latency
system.cpu.icache.ReadReq_avg_mshr_miss_latency::total        34875                       # average ReadReq mshr miss latency
system.cpu.icache.demand_avg_mshr_miss_latency::cpu.inst        34875                       # average overall mshr miss latency
system.cpu.icache.demand_avg_mshr_miss_latency::total        34875                       # average overall mshr miss latency
system.cpu.icache.overall_avg_mshr_miss_latency::cpu.inst        34875                       # average overall mshr miss latency
system.cpu.icache.overall_avg_mshr_miss_latency::total        34875                       # average overall mshr miss latency
system.cpu.icache.no_allocate_misses                0                       # Number of misses that were no-allocate
system.cpu.dcache.replacements                 404115                       # number of replacements
system.cpu.dcache.tagsinuse                511.713762                       # Cycle average of tags in use
system.cpu.dcache.total_refs                 34573427                       # Total number of references to valid blocks.
system.cpu.dcache.sampled_refs                 404627                       # Sample count of references to valid blocks.
system.cpu.dcache.avg_refs                  85.445180                       # Average number of references to valid blocks.
system.cpu.dcache.warmup_cycle           439061879000                       # Cycle when the warmup percentage was hit.
system.cpu.dcache.occ_blocks::cpu.data     511.713762                       # Average occupied blocks per requestor
system.cpu.dcache.occ_percent::cpu.data      0.999441                       # Average percentage of cache occupancy
system.cpu.dcache.occ_percent::total         0.999441                       # Average percentage of cache occupancy
system.cpu.dcache.ReadReq_hits::cpu.data     27530850                       # number of ReadReq hits
system.cpu.dcache.ReadReq_hits::total        27530850                       # number of ReadReq hits
system.cpu.dcache.WriteReq_hits::cpu.data      7042577                       # number of WriteReq hits
system.cpu.dcache.WriteReq_hits::total        7042577                       # number of WriteReq hits
system.cpu.dcache.demand_hits::cpu.data      34573427                       # number of demand (read+write) hits
system.cpu.dcache.demand_hits::total         34573427                       # number of demand (read+write) hits
system.cpu.dcache.overall_hits::cpu.data     34573427                       # number of overall hits
system.cpu.dcache.overall_hits::total        34573427                       # number of overall hits
system.cpu.dcache.ReadReq_misses::cpu.data       217340                       # number of ReadReq misses
system.cpu.dcache.ReadReq_misses::total        217340                       # number of ReadReq misses
system.cpu.dcache.WriteReq_misses::cpu.data       187294                       # number of WriteReq misses
system.cpu.dcache.WriteReq_misses::total       187294                       # number of WriteReq misses
system.cpu.dcache.demand_misses::cpu.data       404634                       # number of demand (read+write) misses
system.cpu.dcache.demand_misses::total         404634                       # number of demand (read+write) misses
system.cpu.dcache.overall_misses::cpu.data       404634                       # number of overall misses
system.cpu.dcache.overall_misses::total        404634                       # number of overall misses
system.cpu.dcache.ReadReq_miss_latency::cpu.data   3054739500                       # number of ReadReq miss cycles
system.cpu.dcache.ReadReq_miss_latency::total   3054739500                       # number of ReadReq miss cycles
system.cpu.dcache.WriteReq_miss_latency::cpu.data   2469727500                       # number of WriteReq miss cycles
system.cpu.dcache.WriteReq_miss_latency::total   2469727500                       # number of WriteReq miss cycles
system.cpu.dcache.demand_miss_latency::cpu.data   5524467000                       # number of demand (read+write) miss cycles
system.cpu.dcache.demand_miss_latency::total   5524467000                       # number of demand (read+write) miss cycles
system.cpu.dcache.overall_miss_latency::cpu.data   5524467000                       # number of overall miss cycles
system.cpu.dcache.overall_miss_latency::total   5524467000                       # number of overall miss cycles
system.cpu.dcache.ReadReq_accesses::cpu.data     27748190                       # number of ReadReq accesses(hits+misses)
system.cpu.dcache.ReadReq_accesses::total     27748190                       # number of ReadReq accesses(hits+misses)
system.cpu.dcache.WriteReq_accesses::cpu.data      7229871                       # number of WriteReq accesses(hits+misses)
system.cpu.dcache.WriteReq_accesses::total      7229871                       # number of WriteReq accesses(hits+misses)
system.cpu.dcache.demand_accesses::cpu.data     34978061                       # number of demand (read+write) accesses
system.cpu.dcache.demand_accesses::total     34978061                       # number of demand (read+write) accesses
system.cpu.dcache.overall_accesses::cpu.data     34978061                       # number of overall (read+write) accesses
system.cpu.dcache.overall_accesses::total     34978061                       # number of overall (read+write) accesses
system.cpu.dcache.ReadReq_miss_rate::cpu.data     0.007833                       # miss rate for ReadReq accesses
system.cpu.dcache.ReadReq_miss_rate::total     0.007833                       # miss rate for ReadReq accesses
system.cpu.dcache.WriteReq_miss_rate::cpu.data     0.025906                       # miss rate for WriteReq accesses
system.cpu.dcache.WriteReq_miss_rate::total     0.025906                       # miss rate for WriteReq accesses
system.cpu.dcache.demand_miss_rate::cpu.data     0.011568                       # miss rate for demand accesses
system.cpu.dcache.demand_miss_rate::total     0.011568                       # miss rate for demand accesses
system.cpu.dcache.overall_miss_rate::cpu.data     0.011568                       # miss rate for overall accesses
system.cpu.dcache.overall_miss_rate::total     0.011568                       # miss rate for overall accesses
system.cpu.dcache.ReadReq_avg_miss_latency::cpu.data 14055.118708                       # average ReadReq miss latency
system.cpu.dcache.ReadReq_avg_miss_latency::total 14055.118708                       # average ReadReq miss latency
system.cpu.dcache.WriteReq_avg_miss_latency::cpu.data 13186.367422                       # average WriteReq miss latency
system.cpu.dcache.WriteReq_avg_miss_latency::total 13186.367422                       # average WriteReq miss latency
system.cpu.dcache.demand_avg_miss_latency::cpu.data 13652.997524                       # average overall miss latency
system.cpu.dcache.demand_avg_miss_latency::total 13652.997524                       # average overall miss latency
system.cpu.dcache.overall_avg_miss_latency::cpu.data 13652.997524                       # average overall miss latency
system.cpu.dcache.overall_avg_miss_latency::total 13652.997524                       # average overall miss latency
system.cpu.dcache.blocked_cycles::no_mshrs            0                       # number of cycles access was blocked
system.cpu.dcache.blocked_cycles::no_targets            0                       # number of cycles access was blocked
system.cpu.dcache.blocked::no_mshrs                 0                       # number of cycles access was blocked
system.cpu.dcache.blocked::no_targets               0                       # number of cycles access was blocked
system.cpu.dcache.avg_blocked_cycles::no_mshrs          nan                       # average number of cycles each access was blocked
system.cpu.dcache.avg_blocked_cycles::no_targets          nan                       # average number of cycles each access was blocked
system.cpu.dcache.fast_writes                       0                       # number of fast writes performed
system.cpu.dcache.cache_copies                      0                       # number of cache copies performed
system.cpu.dcache.writebacks::writebacks       230570                       # number of writebacks
system.cpu.dcache.writebacks::total            230570                       # number of writebacks
system.cpu.dcache.ReadReq_mshr_hits::cpu.data            7                       # number of ReadReq MSHR hits
system.cpu.dcache.ReadReq_mshr_hits::total            7                       # number of ReadReq MSHR hits
system.cpu.dcache.demand_mshr_hits::cpu.data            7                       # number of demand (read+write) MSHR hits
system.cpu.dcache.demand_mshr_hits::total            7                       # number of demand (read+write) MSHR hits
system.cpu.dcache.overall_mshr_hits::cpu.data            7                       # number of overall MSHR hits
system.cpu.dcache.overall_mshr_hits::total            7                       # number of overall MSHR hits
system.cpu.dcache.ReadReq_mshr_misses::cpu.data       217333                       # number of ReadReq MSHR misses
system.cpu.dcache.ReadReq_mshr_misses::total       217333                       # number of ReadReq MSHR misses
system.cpu.dcache.WriteReq_mshr_misses::cpu.data       187294                       # number of WriteReq MSHR misses
system.cpu.dcache.WriteReq_mshr_misses::total       187294                       # number of WriteReq MSHR misses
system.cpu.dcache.demand_mshr_misses::cpu.data       404627                       # number of demand (read+write) MSHR misses
system.cpu.dcache.demand_mshr_misses::total       404627                       # number of demand (read+write) MSHR misses
system.cpu.dcache.overall_mshr_misses::cpu.data       404627                       # number of overall MSHR misses
system.cpu.dcache.overall_mshr_misses::total       404627                       # number of overall MSHR misses
system.cpu.dcache.ReadReq_mshr_miss_latency::cpu.data   2619856000                       # number of ReadReq MSHR miss cycles
system.cpu.dcache.ReadReq_mshr_miss_latency::total   2619856000                       # number of ReadReq MSHR miss cycles
system.cpu.dcache.WriteReq_mshr_miss_latency::cpu.data   2095139500                       # number of WriteReq MSHR miss cycles
system.cpu.dcache.WriteReq_mshr_miss_latency::total   2095139500                       # number of WriteReq MSHR miss cycles
system.cpu.dcache.demand_mshr_miss_latency::cpu.data   4714995500                       # number of demand (read+write) MSHR miss cycles
system.cpu.dcache.demand_mshr_miss_latency::total   4714995500                       # number of demand (read+write) MSHR miss cycles
system.cpu.dcache.overall_mshr_miss_latency::cpu.data   4714995500                       # number of overall MSHR miss cycles
system.cpu.dcache.overall_mshr_miss_latency::total   4714995500                       # number of overall MSHR miss cycles
system.cpu.dcache.ReadReq_mshr_miss_rate::cpu.data     0.007832                       # mshr miss rate for ReadReq accesses
system.cpu.dcache.ReadReq_mshr_miss_rate::total     0.007832                       # mshr miss rate for ReadReq accesses
system.cpu.dcache.WriteReq_mshr_miss_rate::cpu.data     0.025906                       # mshr miss rate for WriteReq accesses
system.cpu.dcache.WriteReq_mshr_miss_rate::total     0.025906                       # mshr miss rate for WriteReq accesses
system.cpu.dcache.demand_mshr_miss_rate::cpu.data     0.011568                       # mshr miss rate for demand accesses
system.cpu.dcache.demand_mshr_miss_rate::total     0.011568                       # mshr miss rate for demand accesses
system.cpu.dcache.overall_mshr_miss_rate::cpu.data     0.011568                       # mshr miss rate for overall accesses
system.cpu.dcache.overall_mshr_miss_rate::total     0.011568                       # mshr miss rate for overall accesses
system.cpu.dcache.ReadReq_avg_mshr_miss_latency::cpu.data 12054.570636                       # average ReadReq mshr miss latency
system.cpu.dcache.ReadReq_avg_mshr_miss_latency::total 12054.570636                       # average ReadReq mshr miss latency
system.cpu.dcache.WriteReq_avg_mshr_miss_latency::cpu.data 11186.367422                       # average WriteReq mshr miss latency
system.cpu.dcache.WriteReq_avg_mshr_miss_latency::total 11186.367422                       # average WriteReq mshr miss latency
system.cpu.dcache.demand_avg_mshr_miss_latency::cpu.data 11652.696187                       # average overall mshr miss latency
system.cpu.dcache.demand_avg_mshr_miss_latency::total 11652.696187                       # average overall mshr miss latency
system.cpu.dcache.overall_avg_mshr_miss_latency::cpu.data 11652.696187                       # average overall mshr miss latency
system.cpu.dcache.overall_avg_mshr_miss_latency::total 11652.696187                       # average overall mshr miss latency
system.cpu.dcache.no_allocate_misses                0                       # Number of misses that were no-allocate

---------- End Simulation Statistics   ----------
