
---------- Begin Simulation Statistics ----------
sim_seconds                                  0.134917                       # Number of seconds simulated
sim_ticks                                134917123000                       # Number of ticks simulated
final_tick                               15648412712000                       # Number of ticks from beginning of simulation (restored from checkpoints and never reset)
sim_freq                                 1000000000000                       # Frequency of simulated ticks
host_inst_rate                                  68502                       # Simulator instruction rate (inst/s)
host_op_rate                                    89387                       # Simulator op (including micro ops) rate (op/s)
host_tick_rate                               92420327                       # Simulator tick rate (ticks/s)
host_mem_usage                                2439452                       # Number of bytes of host memory used
host_seconds                                  1459.82                       # Real time elapsed on the host
sim_insts                                   100000000                       # Number of instructions simulated
sim_ops                                     130488356                       # Number of ops (including micro ops) simulated
system.physmem.bytes_read::cpu.inst              2304                       # Number of bytes read from this memory
system.physmem.bytes_read::cpu.data          99692096                       # Number of bytes read from this memory
system.physmem.bytes_read::total             99694400                       # Number of bytes read from this memory
system.physmem.bytes_inst_read::cpu.inst         2304                       # Number of instructions bytes read from this memory
system.physmem.bytes_inst_read::total            2304                       # Number of instructions bytes read from this memory
system.physmem.bytes_written::writebacks     34566016                       # Number of bytes written to this memory
system.physmem.bytes_written::total          34566016                       # Number of bytes written to this memory
system.physmem.num_reads::cpu.inst                 36                       # Number of read requests responded to by this memory
system.physmem.num_reads::cpu.data            1557689                       # Number of read requests responded to by this memory
system.physmem.num_reads::total               1557725                       # Number of read requests responded to by this memory
system.physmem.num_writes::writebacks          540094                       # Number of write requests responded to by this memory
system.physmem.num_writes::total               540094                       # Number of write requests responded to by this memory
system.physmem.bw_read::cpu.inst                17077                       # Total read bandwidth from this memory (bytes/s)
system.physmem.bw_read::cpu.data            738913592                       # Total read bandwidth from this memory (bytes/s)
system.physmem.bw_read::total               738930669                       # Total read bandwidth from this memory (bytes/s)
system.physmem.bw_inst_read::cpu.inst           17077                       # Instruction read bandwidth from this memory (bytes/s)
system.physmem.bw_inst_read::total              17077                       # Instruction read bandwidth from this memory (bytes/s)
system.physmem.bw_write::writebacks         256201846                       # Write bandwidth from this memory (bytes/s)
system.physmem.bw_write::total              256201846                       # Write bandwidth from this memory (bytes/s)
system.physmem.bw_total::writebacks         256201846                       # Total bandwidth to/from this memory (bytes/s)
system.physmem.bw_total::cpu.inst               17077                       # Total bandwidth to/from this memory (bytes/s)
system.physmem.bw_total::cpu.data           738913592                       # Total bandwidth to/from this memory (bytes/s)
system.physmem.bw_total::total              995132516                       # Total bandwidth to/from this memory (bytes/s)
system.l2.replacements                        1553630                       # number of replacements
system.l2.tagsinuse                       4025.886053                       # Cycle average of tags in use
system.l2.total_refs                           304703                       # Total number of references to valid blocks.
system.l2.sampled_refs                        1557726                       # Sample count of references to valid blocks.
system.l2.avg_refs                           0.195608                       # Average number of references to valid blocks.
system.l2.warmup_cycle                   15612756745500                       # Cycle when the warmup percentage was hit.
system.l2.occ_blocks::writebacks          2281.206032                       # Average occupied blocks per requestor
system.l2.occ_blocks::cpu.inst               0.280673                       # Average occupied blocks per requestor
system.l2.occ_blocks::cpu.data            1744.399348                       # Average occupied blocks per requestor
system.l2.occ_percent::writebacks            0.556935                       # Average percentage of cache occupancy
system.l2.occ_percent::cpu.inst              0.000069                       # Average percentage of cache occupancy
system.l2.occ_percent::cpu.data              0.425879                       # Average percentage of cache occupancy
system.l2.occ_percent::total                 0.982882                       # Average percentage of cache occupancy
system.l2.ReadReq_hits::cpu.data                  387                       # number of ReadReq hits
system.l2.ReadReq_hits::total                     387                       # number of ReadReq hits
system.l2.Writeback_hits::writebacks           542391                       # number of Writeback hits
system.l2.Writeback_hits::total                542391                       # number of Writeback hits
system.l2.demand_hits::cpu.data                   387                       # number of demand (read+write) hits
system.l2.demand_hits::total                      387                       # number of demand (read+write) hits
system.l2.overall_hits::cpu.data                  387                       # number of overall hits
system.l2.overall_hits::total                     387                       # number of overall hits
system.l2.ReadReq_misses::cpu.inst                 36                       # number of ReadReq misses
system.l2.ReadReq_misses::cpu.data            1319615                       # number of ReadReq misses
system.l2.ReadReq_misses::total               1319651                       # number of ReadReq misses
system.l2.ReadExReq_misses::cpu.data           238074                       # number of ReadExReq misses
system.l2.ReadExReq_misses::total              238074                       # number of ReadExReq misses
system.l2.demand_misses::cpu.inst                  36                       # number of demand (read+write) misses
system.l2.demand_misses::cpu.data             1557689                       # number of demand (read+write) misses
system.l2.demand_misses::total                1557725                       # number of demand (read+write) misses
system.l2.overall_misses::cpu.inst                 36                       # number of overall misses
system.l2.overall_misses::cpu.data            1557689                       # number of overall misses
system.l2.overall_misses::total               1557725                       # number of overall misses
system.l2.ReadReq_miss_latency::cpu.inst      1943000                       # number of ReadReq miss cycles
system.l2.ReadReq_miss_latency::cpu.data  70957948500                       # number of ReadReq miss cycles
system.l2.ReadReq_miss_latency::total     70959891500                       # number of ReadReq miss cycles
system.l2.ReadExReq_miss_latency::cpu.data  12445433500                       # number of ReadExReq miss cycles
system.l2.ReadExReq_miss_latency::total   12445433500                       # number of ReadExReq miss cycles
system.l2.demand_miss_latency::cpu.inst       1943000                       # number of demand (read+write) miss cycles
system.l2.demand_miss_latency::cpu.data   83403382000                       # number of demand (read+write) miss cycles
system.l2.demand_miss_latency::total      83405325000                       # number of demand (read+write) miss cycles
system.l2.overall_miss_latency::cpu.inst      1943000                       # number of overall miss cycles
system.l2.overall_miss_latency::cpu.data  83403382000                       # number of overall miss cycles
system.l2.overall_miss_latency::total     83405325000                       # number of overall miss cycles
system.l2.ReadReq_accesses::cpu.inst               36                       # number of ReadReq accesses(hits+misses)
system.l2.ReadReq_accesses::cpu.data          1320002                       # number of ReadReq accesses(hits+misses)
system.l2.ReadReq_accesses::total             1320038                       # number of ReadReq accesses(hits+misses)
system.l2.Writeback_accesses::writebacks       542391                       # number of Writeback accesses(hits+misses)
system.l2.Writeback_accesses::total            542391                       # number of Writeback accesses(hits+misses)
system.l2.ReadExReq_accesses::cpu.data         238074                       # number of ReadExReq accesses(hits+misses)
system.l2.ReadExReq_accesses::total            238074                       # number of ReadExReq accesses(hits+misses)
system.l2.demand_accesses::cpu.inst                36                       # number of demand (read+write) accesses
system.l2.demand_accesses::cpu.data           1558076                       # number of demand (read+write) accesses
system.l2.demand_accesses::total              1558112                       # number of demand (read+write) accesses
system.l2.overall_accesses::cpu.inst               36                       # number of overall (read+write) accesses
system.l2.overall_accesses::cpu.data          1558076                       # number of overall (read+write) accesses
system.l2.overall_accesses::total             1558112                       # number of overall (read+write) accesses
system.l2.ReadReq_miss_rate::cpu.inst               1                       # miss rate for ReadReq accesses
system.l2.ReadReq_miss_rate::cpu.data        0.999707                       # miss rate for ReadReq accesses
system.l2.ReadReq_miss_rate::total           0.999707                       # miss rate for ReadReq accesses
system.l2.ReadExReq_miss_rate::cpu.data             1                       # miss rate for ReadExReq accesses
system.l2.ReadExReq_miss_rate::total                1                       # miss rate for ReadExReq accesses
system.l2.demand_miss_rate::cpu.inst                1                       # miss rate for demand accesses
system.l2.demand_miss_rate::cpu.data         0.999752                       # miss rate for demand accesses
system.l2.demand_miss_rate::total            0.999752                       # miss rate for demand accesses
system.l2.overall_miss_rate::cpu.inst               1                       # miss rate for overall accesses
system.l2.overall_miss_rate::cpu.data        0.999752                       # miss rate for overall accesses
system.l2.overall_miss_rate::total           0.999752                       # miss rate for overall accesses
system.l2.ReadReq_avg_miss_latency::cpu.inst 53972.222222                       # average ReadReq miss latency
system.l2.ReadReq_avg_miss_latency::cpu.data 53771.705005                       # average ReadReq miss latency
system.l2.ReadReq_avg_miss_latency::total 53771.710475                       # average ReadReq miss latency
system.l2.ReadExReq_avg_miss_latency::cpu.data 52275.483673                       # average ReadExReq miss latency
system.l2.ReadExReq_avg_miss_latency::total 52275.483673                       # average ReadExReq miss latency
system.l2.demand_avg_miss_latency::cpu.inst 53972.222222                       # average overall miss latency
system.l2.demand_avg_miss_latency::cpu.data 53543.025598                       # average overall miss latency
system.l2.demand_avg_miss_latency::total 53543.035517                       # average overall miss latency
system.l2.overall_avg_miss_latency::cpu.inst 53972.222222                       # average overall miss latency
system.l2.overall_avg_miss_latency::cpu.data 53543.025598                       # average overall miss latency
system.l2.overall_avg_miss_latency::total 53543.035517                       # average overall miss latency
system.l2.blocked_cycles::no_mshrs                  0                       # number of cycles access was blocked
system.l2.blocked_cycles::no_targets                0                       # number of cycles access was blocked
system.l2.blocked::no_mshrs                         0                       # number of cycles access was blocked
system.l2.blocked::no_targets                       0                       # number of cycles access was blocked
system.l2.avg_blocked_cycles::no_mshrs            nan                       # average number of cycles each access was blocked
system.l2.avg_blocked_cycles::no_targets          nan                       # average number of cycles each access was blocked
system.l2.fast_writes                               0                       # number of fast writes performed
system.l2.cache_copies                              0                       # number of cache copies performed
system.l2.writebacks::writebacks               540094                       # number of writebacks
system.l2.writebacks::total                    540094                       # number of writebacks
system.l2.ReadReq_mshr_misses::cpu.inst            36                       # number of ReadReq MSHR misses
system.l2.ReadReq_mshr_misses::cpu.data       1319615                       # number of ReadReq MSHR misses
system.l2.ReadReq_mshr_misses::total          1319651                       # number of ReadReq MSHR misses
system.l2.ReadExReq_mshr_misses::cpu.data       238074                       # number of ReadExReq MSHR misses
system.l2.ReadExReq_mshr_misses::total         238074                       # number of ReadExReq MSHR misses
system.l2.demand_mshr_misses::cpu.inst             36                       # number of demand (read+write) MSHR misses
system.l2.demand_mshr_misses::cpu.data        1557689                       # number of demand (read+write) MSHR misses
system.l2.demand_mshr_misses::total           1557725                       # number of demand (read+write) MSHR misses
system.l2.overall_mshr_misses::cpu.inst            36                       # number of overall MSHR misses
system.l2.overall_mshr_misses::cpu.data       1557689                       # number of overall MSHR misses
system.l2.overall_mshr_misses::total          1557725                       # number of overall MSHR misses
system.l2.ReadReq_mshr_miss_latency::cpu.inst      1503000                       # number of ReadReq MSHR miss cycles
system.l2.ReadReq_mshr_miss_latency::cpu.data  54713465000                       # number of ReadReq MSHR miss cycles
system.l2.ReadReq_mshr_miss_latency::total  54714968000                       # number of ReadReq MSHR miss cycles
system.l2.ReadExReq_mshr_miss_latency::cpu.data   9522969500                       # number of ReadExReq MSHR miss cycles
system.l2.ReadExReq_mshr_miss_latency::total   9522969500                       # number of ReadExReq MSHR miss cycles
system.l2.demand_mshr_miss_latency::cpu.inst      1503000                       # number of demand (read+write) MSHR miss cycles
system.l2.demand_mshr_miss_latency::cpu.data  64236434500                       # number of demand (read+write) MSHR miss cycles
system.l2.demand_mshr_miss_latency::total  64237937500                       # number of demand (read+write) MSHR miss cycles
system.l2.overall_mshr_miss_latency::cpu.inst      1503000                       # number of overall MSHR miss cycles
system.l2.overall_mshr_miss_latency::cpu.data  64236434500                       # number of overall MSHR miss cycles
system.l2.overall_mshr_miss_latency::total  64237937500                       # number of overall MSHR miss cycles
system.l2.ReadReq_mshr_miss_rate::cpu.inst            1                       # mshr miss rate for ReadReq accesses
system.l2.ReadReq_mshr_miss_rate::cpu.data     0.999707                       # mshr miss rate for ReadReq accesses
system.l2.ReadReq_mshr_miss_rate::total      0.999707                       # mshr miss rate for ReadReq accesses
system.l2.ReadExReq_mshr_miss_rate::cpu.data            1                       # mshr miss rate for ReadExReq accesses
system.l2.ReadExReq_mshr_miss_rate::total            1                       # mshr miss rate for ReadExReq accesses
system.l2.demand_mshr_miss_rate::cpu.inst            1                       # mshr miss rate for demand accesses
system.l2.demand_mshr_miss_rate::cpu.data     0.999752                       # mshr miss rate for demand accesses
system.l2.demand_mshr_miss_rate::total       0.999752                       # mshr miss rate for demand accesses
system.l2.overall_mshr_miss_rate::cpu.inst            1                       # mshr miss rate for overall accesses
system.l2.overall_mshr_miss_rate::cpu.data     0.999752                       # mshr miss rate for overall accesses
system.l2.overall_mshr_miss_rate::total      0.999752                       # mshr miss rate for overall accesses
system.l2.ReadReq_avg_mshr_miss_latency::cpu.inst        41750                       # average ReadReq mshr miss latency
system.l2.ReadReq_avg_mshr_miss_latency::cpu.data 41461.687689                       # average ReadReq mshr miss latency
system.l2.ReadReq_avg_mshr_miss_latency::total 41461.695554                       # average ReadReq mshr miss latency
system.l2.ReadExReq_avg_mshr_miss_latency::cpu.data 40000.039904                       # average ReadExReq mshr miss latency
system.l2.ReadExReq_avg_mshr_miss_latency::total 40000.039904                       # average ReadExReq mshr miss latency
system.l2.demand_avg_mshr_miss_latency::cpu.inst        41750                       # average overall mshr miss latency
system.l2.demand_avg_mshr_miss_latency::cpu.data 41238.292432                       # average overall mshr miss latency
system.l2.demand_avg_mshr_miss_latency::total 41238.304258                       # average overall mshr miss latency
system.l2.overall_avg_mshr_miss_latency::cpu.inst        41750                       # average overall mshr miss latency
system.l2.overall_avg_mshr_miss_latency::cpu.data 41238.292432                       # average overall mshr miss latency
system.l2.overall_avg_mshr_miss_latency::total 41238.304258                       # average overall mshr miss latency
system.l2.no_allocate_misses                        0                       # Number of misses that were no-allocate
system.cpu.branchPred.lookups                 3570736                       # Number of BP lookups
system.cpu.branchPred.condPredicted           3570736                       # Number of conditional branches predicted
system.cpu.branchPred.condIncorrect                82                       # Number of conditional branches incorrect
system.cpu.branchPred.BTBLookups              2679922                       # Number of BTB lookups
system.cpu.branchPred.BTBHits                 2679882                       # Number of BTB hits
system.cpu.branchPred.BTBCorrect                    0                       # Number of correct BTB predictions (this stat may not work properly.
system.cpu.branchPred.BTBHitPct             99.998507                       # BTB Hit Percentage
system.cpu.branchPred.usedRAS                       0                       # Number of times the RAS was used to get a target.
system.cpu.branchPred.RASInCorrect                  0                       # Number of incorrect RAS predictions.
system.cpu.workload.num_syscalls                    0                       # Number of system calls
system.cpu.numCycles                        269834246                       # number of cpu cycles simulated
system.cpu.numWorkItemsStarted                      0                       # number of work items this cpu started
system.cpu.numWorkItemsCompleted                    0                       # number of work items this cpu completed
system.cpu.fetch.icacheStallCycles            8940959                       # Number of cycles fetch is stalled on an Icache miss
system.cpu.fetch.Insts                      100000492                       # Number of instructions fetch has processed
system.cpu.fetch.Branches                     3570736                       # Number of branches that fetch encountered
system.cpu.fetch.predictedBranches            2679882                       # Number of branches that fetch has predicted taken
system.cpu.fetch.Cycles                      37657524                       # Number of cycles fetch has run and was not squashing or blocked
system.cpu.fetch.SquashCycles                     210                       # Number of cycles fetch has spent squashing
system.cpu.fetch.BlockedCycles              133816402                       # Number of cycles fetch has spent blocked
system.cpu.fetch.CacheLines                   8939788                       # Number of cache lines fetched
system.cpu.fetch.IcacheSquashes                    11                       # Number of outstanding Icache misses that were squashed
system.cpu.fetch.rateDist::samples          180414995                       # Number of instructions fetched each cycle (Total)
system.cpu.fetch.rateDist::mean              0.723272                       # Number of instructions fetched each cycle (Total)
system.cpu.fetch.rateDist::stdev             1.500167                       # Number of instructions fetched each cycle (Total)
system.cpu.fetch.rateDist::underflows               0      0.00%      0.00% # Number of instructions fetched each cycle (Total)
system.cpu.fetch.rateDist::0                145046639     80.40%     80.40% # Number of instructions fetched each cycle (Total)
system.cpu.fetch.rateDist::1                   987663      0.55%     80.94% # Number of instructions fetched each cycle (Total)
system.cpu.fetch.rateDist::2                  2736835      1.52%     82.46% # Number of instructions fetched each cycle (Total)
system.cpu.fetch.rateDist::3                  2547611      1.41%     83.87% # Number of instructions fetched each cycle (Total)
system.cpu.fetch.rateDist::4                 29096247     16.13%    100.00% # Number of instructions fetched each cycle (Total)
system.cpu.fetch.rateDist::overflows                0      0.00%    100.00% # Number of instructions fetched each cycle (Total)
system.cpu.fetch.rateDist::min_value                0                       # Number of instructions fetched each cycle (Total)
system.cpu.fetch.rateDist::max_value                4                       # Number of instructions fetched each cycle (Total)
system.cpu.fetch.rateDist::total            180414995                       # Number of instructions fetched each cycle (Total)
system.cpu.fetch.branchRate                  0.013233                       # Number of branch fetches per cycle
system.cpu.fetch.rate                        0.370600                       # Number of inst fetches per cycle
system.cpu.decode.IdleCycles                 32806577                       # Number of cycles decode is idle
system.cpu.decode.BlockedCycles             112240008                       # Number of cycles decode is blocked
system.cpu.decode.RunCycles                  22182767                       # Number of cycles decode is running
system.cpu.decode.UnblockCycles              13185530                       # Number of cycles decode is unblocking
system.cpu.decode.SquashCycles                    110                       # Number of cycles decode is squashing
system.cpu.decode.DecodedInsts              130488955                       # Number of instructions handled by decode
system.cpu.rename.SquashCycles                    110                       # Number of cycles rename is squashing
system.cpu.rename.IdleCycles                 40226566                       # Number of cycles rename is idle
system.cpu.rename.BlockCycles                68746087                       # Number of cycles rename is blocking
system.cpu.rename.serializeStallCycles              0                       # count of cycles rename stalled for serializing inst
system.cpu.rename.RunCycles                  22703959                       # Number of cycles rename is running
system.cpu.rename.UnblockCycles              48738272                       # Number of cycles rename is unblocking
system.cpu.rename.RenamedInsts              130488751                       # Number of instructions processed by rename
system.cpu.rename.IQFullEvents               41497719                       # Number of times rename has blocked due to IQ full
system.cpu.rename.RenamedOperands           148157616                       # Number of destination operands rename has renamed
system.cpu.rename.RenameLookups             329487544                       # Number of register rename lookups that rename has made
system.cpu.rename.int_rename_lookups         72552425                       # Number of integer rename lookups
system.cpu.rename.fp_rename_lookups         256935119                       # Number of floating rename lookups
system.cpu.rename.CommittedMaps             148157086                       # Number of HB maps that are committed
system.cpu.rename.UndoneMaps                      521                       # Number of HB maps that are undone due to squashing
system.cpu.rename.serializingInsts                  0                       # count of serializing insts renamed
system.cpu.rename.tempSerializingInsts              0                       # count of temporary serializing insts renamed
system.cpu.rename.skidInsts                  74938155                       # count of insts added to the skid buffer
system.cpu.memDep0.insertedLoads             26166953                       # Number of loads inserted to the mem dependence unit.
system.cpu.memDep0.insertedStores             5772141                       # Number of stores inserted to the mem dependence unit.
system.cpu.memDep0.conflictingLoads            442809                       # Number of conflicting loads.
system.cpu.memDep0.conflictingStores                0                       # Number of conflicting stores.
system.cpu.iq.iqInstsAdded                  130488570                       # Number of instructions added to the IQ (excludes non-spec)
system.cpu.iq.iqInstsIssued                 130488554                       # Number of instructions issued
system.cpu.iq.iqSquashedInstsExamined              98                       # Number of squashed instructions iterated over during squash; mainly for profiling
system.cpu.iq.iqSquashedOperandsExamined          129                       # Number of squashed operands that are examined and possibly removed from graph
system.cpu.iq.issued_per_cycle::samples     180414995                       # Number of insts issued each cycle
system.cpu.iq.issued_per_cycle::mean         0.723269                       # Number of insts issued each cycle
system.cpu.iq.issued_per_cycle::stdev        0.872439                       # Number of insts issued each cycle
system.cpu.iq.issued_per_cycle::underflows            0      0.00%      0.00% # Number of insts issued each cycle
system.cpu.iq.issued_per_cycle::0            94492877     52.38%     52.38% # Number of insts issued each cycle
system.cpu.iq.issued_per_cycle::1            47383353     26.26%     78.64% # Number of insts issued each cycle
system.cpu.iq.issued_per_cycle::2            32523231     18.03%     96.67% # Number of insts issued each cycle
system.cpu.iq.issued_per_cycle::3             6003397      3.33%     99.99% # Number of insts issued each cycle
system.cpu.iq.issued_per_cycle::4               12137      0.01%    100.00% # Number of insts issued each cycle
system.cpu.iq.issued_per_cycle::overflows            0      0.00%    100.00% # Number of insts issued each cycle
system.cpu.iq.issued_per_cycle::min_value            0                       # Number of insts issued each cycle
system.cpu.iq.issued_per_cycle::max_value            4                       # Number of insts issued each cycle
system.cpu.iq.issued_per_cycle::total       180414995                       # Number of insts issued each cycle
system.cpu.iq.fu_full::No_OpClass                   0      0.00%      0.00% # attempts to use FU when none available
system.cpu.iq.fu_full::IntAlu                       0      0.00%      0.00% # attempts to use FU when none available
system.cpu.iq.fu_full::IntMult                      0      0.00%      0.00% # attempts to use FU when none available
system.cpu.iq.fu_full::IntDiv                       0      0.00%      0.00% # attempts to use FU when none available
system.cpu.iq.fu_full::FloatAdd               3925249    100.00%    100.00% # attempts to use FU when none available
system.cpu.iq.fu_full::FloatCmp                     0      0.00%    100.00% # attempts to use FU when none available
system.cpu.iq.fu_full::FloatCvt                     0      0.00%    100.00% # attempts to use FU when none available
system.cpu.iq.fu_full::FloatMult                    0      0.00%    100.00% # attempts to use FU when none available
system.cpu.iq.fu_full::FloatDiv                     0      0.00%    100.00% # attempts to use FU when none available
system.cpu.iq.fu_full::FloatSqrt                    0      0.00%    100.00% # attempts to use FU when none available
system.cpu.iq.fu_full::SimdAdd                      0      0.00%    100.00% # attempts to use FU when none available
system.cpu.iq.fu_full::SimdAddAcc                   0      0.00%    100.00% # attempts to use FU when none available
system.cpu.iq.fu_full::SimdAlu                      0      0.00%    100.00% # attempts to use FU when none available
system.cpu.iq.fu_full::SimdCmp                      0      0.00%    100.00% # attempts to use FU when none available
system.cpu.iq.fu_full::SimdCvt                      0      0.00%    100.00% # attempts to use FU when none available
system.cpu.iq.fu_full::SimdMisc                     0      0.00%    100.00% # attempts to use FU when none available
system.cpu.iq.fu_full::SimdMult                     0      0.00%    100.00% # attempts to use FU when none available
system.cpu.iq.fu_full::SimdMultAcc                  0      0.00%    100.00% # attempts to use FU when none available
system.cpu.iq.fu_full::SimdShift                    0      0.00%    100.00% # attempts to use FU when none available
system.cpu.iq.fu_full::SimdShiftAcc                 0      0.00%    100.00% # attempts to use FU when none available
system.cpu.iq.fu_full::SimdSqrt                     0      0.00%    100.00% # attempts to use FU when none available
system.cpu.iq.fu_full::SimdFloatAdd                 0      0.00%    100.00% # attempts to use FU when none available
system.cpu.iq.fu_full::SimdFloatAlu                 0      0.00%    100.00% # attempts to use FU when none available
system.cpu.iq.fu_full::SimdFloatCmp                 0      0.00%    100.00% # attempts to use FU when none available
system.cpu.iq.fu_full::SimdFloatCvt                 0      0.00%    100.00% # attempts to use FU when none available
system.cpu.iq.fu_full::SimdFloatDiv                 0      0.00%    100.00% # attempts to use FU when none available
system.cpu.iq.fu_full::SimdFloatMisc                0      0.00%    100.00% # attempts to use FU when none available
system.cpu.iq.fu_full::SimdFloatMult                0      0.00%    100.00% # attempts to use FU when none available
system.cpu.iq.fu_full::SimdFloatMultAcc             0      0.00%    100.00% # attempts to use FU when none available
system.cpu.iq.fu_full::SimdFloatSqrt                0      0.00%    100.00% # attempts to use FU when none available
system.cpu.iq.fu_full::MemRead                      0      0.00%    100.00% # attempts to use FU when none available
system.cpu.iq.fu_full::MemWrite                     0      0.00%    100.00% # attempts to use FU when none available
system.cpu.iq.fu_full::IprAccess                    0      0.00%    100.00% # attempts to use FU when none available
system.cpu.iq.fu_full::InstPrefetch                 0      0.00%    100.00% # attempts to use FU when none available
system.cpu.iq.FU_type_0::No_OpClass                18      0.00%      0.00% # Type of FU issued
system.cpu.iq.FU_type_0::IntAlu              38237522     29.30%     29.30% # Type of FU issued
system.cpu.iq.FU_type_0::IntMult                    0      0.00%     29.30% # Type of FU issued
system.cpu.iq.FU_type_0::IntDiv                     0      0.00%     29.30% # Type of FU issued
system.cpu.iq.FU_type_0::FloatAdd            60311923     46.22%     75.52% # Type of FU issued
system.cpu.iq.FU_type_0::FloatCmp                   0      0.00%     75.52% # Type of FU issued
system.cpu.iq.FU_type_0::FloatCvt                   0      0.00%     75.52% # Type of FU issued
system.cpu.iq.FU_type_0::FloatMult                  0      0.00%     75.52% # Type of FU issued
system.cpu.iq.FU_type_0::FloatDiv                   0      0.00%     75.52% # Type of FU issued
system.cpu.iq.FU_type_0::FloatSqrt                  0      0.00%     75.52% # Type of FU issued
system.cpu.iq.FU_type_0::SimdAdd                    0      0.00%     75.52% # Type of FU issued
system.cpu.iq.FU_type_0::SimdAddAcc                 0      0.00%     75.52% # Type of FU issued
system.cpu.iq.FU_type_0::SimdAlu                    0      0.00%     75.52% # Type of FU issued
system.cpu.iq.FU_type_0::SimdCmp                    0      0.00%     75.52% # Type of FU issued
system.cpu.iq.FU_type_0::SimdCvt                    0      0.00%     75.52% # Type of FU issued
system.cpu.iq.FU_type_0::SimdMisc                   0      0.00%     75.52% # Type of FU issued
system.cpu.iq.FU_type_0::SimdMult                   0      0.00%     75.52% # Type of FU issued
system.cpu.iq.FU_type_0::SimdMultAcc                0      0.00%     75.52% # Type of FU issued
system.cpu.iq.FU_type_0::SimdShift                  0      0.00%     75.52% # Type of FU issued
system.cpu.iq.FU_type_0::SimdShiftAcc               0      0.00%     75.52% # Type of FU issued
system.cpu.iq.FU_type_0::SimdSqrt                   0      0.00%     75.52% # Type of FU issued
system.cpu.iq.FU_type_0::SimdFloatAdd               0      0.00%     75.52% # Type of FU issued
system.cpu.iq.FU_type_0::SimdFloatAlu               0      0.00%     75.52% # Type of FU issued
system.cpu.iq.FU_type_0::SimdFloatCmp               0      0.00%     75.52% # Type of FU issued
system.cpu.iq.FU_type_0::SimdFloatCvt               0      0.00%     75.52% # Type of FU issued
system.cpu.iq.FU_type_0::SimdFloatDiv               0      0.00%     75.52% # Type of FU issued
system.cpu.iq.FU_type_0::SimdFloatMisc              0      0.00%     75.52% # Type of FU issued
system.cpu.iq.FU_type_0::SimdFloatMult              0      0.00%     75.52% # Type of FU issued
system.cpu.iq.FU_type_0::SimdFloatMultAcc            0      0.00%     75.52% # Type of FU issued
system.cpu.iq.FU_type_0::SimdFloatSqrt              0      0.00%     75.52% # Type of FU issued
system.cpu.iq.FU_type_0::MemRead             26166951     20.05%     95.58% # Type of FU issued
system.cpu.iq.FU_type_0::MemWrite             5772140      4.42%    100.00% # Type of FU issued
system.cpu.iq.FU_type_0::IprAccess                  0      0.00%    100.00% # Type of FU issued
system.cpu.iq.FU_type_0::InstPrefetch               0      0.00%    100.00% # Type of FU issued
system.cpu.iq.FU_type_0::total              130488554                       # Type of FU issued
system.cpu.iq.rate                           0.483588                       # Inst issue rate
system.cpu.iq.fu_busy_cnt                     3925249                       # FU busy when requested
system.cpu.iq.fu_busy_rate                   0.030081                       # FU busy rate (busy events/executed inst)
system.cpu.iq.int_inst_queue_reads          260853162                       # Number of integer instruction queue reads
system.cpu.iq.int_inst_queue_writes          40219197                       # Number of integer instruction queue writes
system.cpu.iq.int_inst_queue_wakeup_accesses     40219015                       # Number of integer instruction queue wakeup accesses
system.cpu.iq.fp_inst_queue_reads           184464189                       # Number of floating instruction queue reads
system.cpu.iq.fp_inst_queue_writes           90269489                       # Number of floating instruction queue writes
system.cpu.iq.fp_inst_queue_wakeup_accesses     90269459                       # Number of floating instruction queue wakeup accesses
system.cpu.iq.int_alu_accesses               40219066                       # Number of integer alu accesses
system.cpu.iq.fp_alu_accesses                94194719                       # Number of floating point alu accesses
system.cpu.iew.lsq.thread0.forwLoads                0                       # Number of loads that had data forwarded from stores
system.cpu.iew.lsq.thread0.invAddrLoads             0                       # Number of loads ignored due to an invalid address
system.cpu.iew.lsq.thread0.squashedLoads           59                       # Number of loads squashed
system.cpu.iew.lsq.thread0.ignoredResponses            0                       # Number of memory responses ignored because the instruction is squashed
system.cpu.iew.lsq.thread0.memOrderViolation           18                       # Number of memory ordering violations
system.cpu.iew.lsq.thread0.squashedStores            3                       # Number of stores squashed
system.cpu.iew.lsq.thread0.invAddrSwpfs             0                       # Number of software prefetches ignored due to an invalid address
system.cpu.iew.lsq.thread0.blockedLoads             0                       # Number of blocked loads due to partial load-store forwarding
system.cpu.iew.lsq.thread0.rescheduledLoads            0                       # Number of loads that were rescheduled
system.cpu.iew.lsq.thread0.cacheBlocked             0                       # Number of times an access to memory failed due to the cache being blocked
system.cpu.iew.iewIdleCycles                        0                       # Number of cycles IEW is idle
system.cpu.iew.iewSquashCycles                    110                       # Number of cycles IEW is squashing
system.cpu.iew.iewBlockCycles                20138428                       # Number of cycles IEW is blocking
system.cpu.iew.iewUnblockCycles               2633795                       # Number of cycles IEW is unblocking
system.cpu.iew.iewDispatchedInsts           130488570                       # Number of instructions dispatched to IQ
system.cpu.iew.iewDispSquashedInsts                50                       # Number of squashed instructions skipped by dispatch
system.cpu.iew.iewDispLoadInsts              26166953                       # Number of dispatched load instructions
system.cpu.iew.iewDispStoreInsts              5772141                       # Number of dispatched store instructions
system.cpu.iew.iewDispNonSpecInsts                  0                       # Number of dispatched non-speculative instructions
system.cpu.iew.iewIQFullEvents                1633480                       # Number of times the IQ has become full, causing a stall
system.cpu.iew.iewLSQFullEvents                     0                       # Number of times the LSQ has become full, causing a stall
system.cpu.iew.memOrderViolationEvents             18                       # Number of memory order violations
system.cpu.iew.predictedTakenIncorrect              5                       # Number of branches that were predicted taken incorrectly
system.cpu.iew.predictedNotTakenIncorrect           77                       # Number of branches that were predicted not taken incorrectly
system.cpu.iew.branchMispredicts                   82                       # Number of branch mispredicts detected at execute
system.cpu.iew.iewExecutedInsts             130488497                       # Number of executed instructions
system.cpu.iew.iewExecLoadInsts              26166944                       # Number of load instructions executed
system.cpu.iew.iewExecSquashedInsts                56                       # Number of squashed instructions skipped in execute
system.cpu.iew.exec_swp                             0                       # number of swp insts executed
system.cpu.iew.exec_nop                             0                       # number of nop insts executed
system.cpu.iew.exec_refs                     31939084                       # number of memory reference insts executed
system.cpu.iew.exec_branches                  3570674                       # Number of branches executed
system.cpu.iew.exec_stores                    5772140                       # Number of stores executed
system.cpu.iew.exec_rate                     0.483588                       # Inst execution rate
system.cpu.iew.wb_sent                      130488474                       # cumulative count of insts sent to commit
system.cpu.iew.wb_count                     130488474                       # cumulative count of insts written-back
system.cpu.iew.wb_producers                  35483529                       # num instructions producing a value
system.cpu.iew.wb_consumers                  46634519                       # num instructions consuming a value
system.cpu.iew.wb_penalized                         0                       # number of instrctions required to write to 'other' IQ
system.cpu.iew.wb_rate                       0.483588                       # insts written-back per cycle
system.cpu.iew.wb_fanout                     0.760885                       # average fanout of values written-back
system.cpu.iew.wb_penalized_rate                    0                       # fraction of instructions written-back that wrote to 'other' IQ
system.cpu.commit.commitSquashedInsts             211                       # The number of squashed insts skipped by commit
system.cpu.commit.branchMispredicts                82                       # The number of times a branch was mispredicted
system.cpu.commit.committed_per_cycle::samples    180414885                       # Number of insts commited each cycle
system.cpu.commit.committed_per_cycle::mean     0.723268                       # Number of insts commited each cycle
system.cpu.commit.committed_per_cycle::stdev     0.927985                       # Number of insts commited each cycle
system.cpu.commit.committed_per_cycle::underflows            0      0.00%      0.00% # Number of insts commited each cycle
system.cpu.commit.committed_per_cycle::0     95982377     53.20%     53.20% # Number of insts commited each cycle
system.cpu.commit.committed_per_cycle::1     49793006     27.60%     80.80% # Number of insts commited each cycle
system.cpu.commit.committed_per_cycle::2     25378504     14.07%     94.87% # Number of insts commited each cycle
system.cpu.commit.committed_per_cycle::3      7105650      3.94%     98.81% # Number of insts commited each cycle
system.cpu.commit.committed_per_cycle::4      2155348      1.19%    100.00% # Number of insts commited each cycle
system.cpu.commit.committed_per_cycle::overflows            0      0.00%    100.00% # Number of insts commited each cycle
system.cpu.commit.committed_per_cycle::min_value            0                       # Number of insts commited each cycle
system.cpu.commit.committed_per_cycle::max_value            4                       # Number of insts commited each cycle
system.cpu.commit.committed_per_cycle::total    180414885                       # Number of insts commited each cycle
system.cpu.commit.committedInsts            100000000                       # Number of instructions committed
system.cpu.commit.committedOps              130488356                       # Number of ops (including micro ops) committed
system.cpu.commit.swp_count                         0                       # Number of s/w prefetches committed
system.cpu.commit.refs                       31939032                       # Number of memory references committed
system.cpu.commit.loads                      26166894                       # Number of loads committed
system.cpu.commit.membars                           0                       # Number of memory barriers committed
system.cpu.commit.branches                    3570673                       # Number of branches committed
system.cpu.commit.fp_insts                   90269429                       # Number of committed floating point instructions.
system.cpu.commit.int_insts                  70176441                       # Number of committed integer instructions.
system.cpu.commit.function_calls                    0                       # Number of function calls committed.
system.cpu.commit.bw_lim_events               2155348                       # number cycles where commit BW limit reached
system.cpu.commit.bw_limited                        0                       # number of insts not committed due to BW limits
system.cpu.rob.rob_reads                    308748104                       # The number of ROB reads
system.cpu.rob.rob_writes                   260977249                       # The number of ROB writes
system.cpu.timesIdled                         1120180                       # Number of times that the entire CPU went into an idle state and unscheduled itself
system.cpu.idleCycles                        89419251                       # Total number of cycles that the CPU has spent unscheduled due to idling
system.cpu.committedInsts                   100000000                       # Number of Instructions Simulated
system.cpu.committedOps                     130488356                       # Number of Ops (including micro ops) Simulated
system.cpu.committedInsts_total             100000000                       # Number of Instructions Simulated
system.cpu.cpi                               2.698342                       # CPI: Cycles Per Instruction
system.cpu.cpi_total                         2.698342                       # CPI: Total CPI of All Threads
system.cpu.ipc                               0.370598                       # IPC: Instructions Per Cycle
system.cpu.ipc_total                         0.370598                       # IPC: Total IPC of All Threads
system.cpu.int_regfile_reads                122973536                       # number of integer regfile reads
system.cpu.int_regfile_writes                63204521                       # number of integer regfile writes
system.cpu.fp_regfile_reads                 167062379                       # number of floating regfile reads
system.cpu.fp_regfile_writes                 84952699                       # number of floating regfile writes
system.cpu.misc_regfile_reads                39451209                       # number of misc regfile reads
system.cpu.itb_walker_cache.replacements            0                       # number of replacements
system.cpu.itb_walker_cache.tagsinuse               0                       # Cycle average of tags in use
system.cpu.itb_walker_cache.total_refs              0                       # Total number of references to valid blocks.
system.cpu.itb_walker_cache.sampled_refs            0                       # Sample count of references to valid blocks.
system.cpu.itb_walker_cache.avg_refs              nan                       # Average number of references to valid blocks.
system.cpu.itb_walker_cache.warmup_cycle            0                       # Cycle when the warmup percentage was hit.
system.cpu.itb_walker_cache.blocked_cycles::no_mshrs            0                       # number of cycles access was blocked
system.cpu.itb_walker_cache.blocked_cycles::no_targets            0                       # number of cycles access was blocked
system.cpu.itb_walker_cache.blocked::no_mshrs            0                       # number of cycles access was blocked
system.cpu.itb_walker_cache.blocked::no_targets            0                       # number of cycles access was blocked
system.cpu.itb_walker_cache.avg_blocked_cycles::no_mshrs          nan                       # average number of cycles each access was blocked
system.cpu.itb_walker_cache.avg_blocked_cycles::no_targets          nan                       # average number of cycles each access was blocked
system.cpu.itb_walker_cache.fast_writes             0                       # number of fast writes performed
system.cpu.itb_walker_cache.cache_copies            0                       # number of cache copies performed
system.cpu.itb_walker_cache.no_allocate_misses            0                       # Number of misses that were no-allocate
system.cpu.dtb_walker_cache.replacements            0                       # number of replacements
system.cpu.dtb_walker_cache.tagsinuse               0                       # Cycle average of tags in use
system.cpu.dtb_walker_cache.total_refs              0                       # Total number of references to valid blocks.
system.cpu.dtb_walker_cache.sampled_refs            0                       # Sample count of references to valid blocks.
system.cpu.dtb_walker_cache.avg_refs              nan                       # Average number of references to valid blocks.
system.cpu.dtb_walker_cache.warmup_cycle            0                       # Cycle when the warmup percentage was hit.
system.cpu.dtb_walker_cache.blocked_cycles::no_mshrs            0                       # number of cycles access was blocked
system.cpu.dtb_walker_cache.blocked_cycles::no_targets            0                       # number of cycles access was blocked
system.cpu.dtb_walker_cache.blocked::no_mshrs            0                       # number of cycles access was blocked
system.cpu.dtb_walker_cache.blocked::no_targets            0                       # number of cycles access was blocked
system.cpu.dtb_walker_cache.avg_blocked_cycles::no_mshrs          nan                       # average number of cycles each access was blocked
system.cpu.dtb_walker_cache.avg_blocked_cycles::no_targets          nan                       # average number of cycles each access was blocked
system.cpu.dtb_walker_cache.fast_writes             0                       # number of fast writes performed
system.cpu.dtb_walker_cache.cache_copies            0                       # number of cache copies performed
system.cpu.dtb_walker_cache.no_allocate_misses            0                       # Number of misses that were no-allocate
system.cpu.icache.replacements                      0                       # number of replacements
system.cpu.icache.tagsinuse                 25.074477                       # Cycle average of tags in use
system.cpu.icache.total_refs                  8939751                       # Total number of references to valid blocks.
system.cpu.icache.sampled_refs                     36                       # Sample count of references to valid blocks.
system.cpu.icache.avg_refs               248326.416667                       # Average number of references to valid blocks.
system.cpu.icache.warmup_cycle                      0                       # Cycle when the warmup percentage was hit.
system.cpu.icache.occ_blocks::cpu.inst      25.074477                       # Average occupied blocks per requestor
system.cpu.icache.occ_percent::cpu.inst      0.048974                       # Average percentage of cache occupancy
system.cpu.icache.occ_percent::total         0.048974                       # Average percentage of cache occupancy
system.cpu.icache.ReadReq_hits::cpu.inst      8939751                       # number of ReadReq hits
system.cpu.icache.ReadReq_hits::total         8939751                       # number of ReadReq hits
system.cpu.icache.demand_hits::cpu.inst       8939751                       # number of demand (read+write) hits
system.cpu.icache.demand_hits::total          8939751                       # number of demand (read+write) hits
system.cpu.icache.overall_hits::cpu.inst      8939751                       # number of overall hits
system.cpu.icache.overall_hits::total         8939751                       # number of overall hits
system.cpu.icache.ReadReq_misses::cpu.inst           37                       # number of ReadReq misses
system.cpu.icache.ReadReq_misses::total            37                       # number of ReadReq misses
system.cpu.icache.demand_misses::cpu.inst           37                       # number of demand (read+write) misses
system.cpu.icache.demand_misses::total             37                       # number of demand (read+write) misses
system.cpu.icache.overall_misses::cpu.inst           37                       # number of overall misses
system.cpu.icache.overall_misses::total            37                       # number of overall misses
system.cpu.icache.ReadReq_miss_latency::cpu.inst      2104500                       # number of ReadReq miss cycles
system.cpu.icache.ReadReq_miss_latency::total      2104500                       # number of ReadReq miss cycles
system.cpu.icache.demand_miss_latency::cpu.inst      2104500                       # number of demand (read+write) miss cycles
system.cpu.icache.demand_miss_latency::total      2104500                       # number of demand (read+write) miss cycles
system.cpu.icache.overall_miss_latency::cpu.inst      2104500                       # number of overall miss cycles
system.cpu.icache.overall_miss_latency::total      2104500                       # number of overall miss cycles
system.cpu.icache.ReadReq_accesses::cpu.inst      8939788                       # number of ReadReq accesses(hits+misses)
system.cpu.icache.ReadReq_accesses::total      8939788                       # number of ReadReq accesses(hits+misses)
system.cpu.icache.demand_accesses::cpu.inst      8939788                       # number of demand (read+write) accesses
system.cpu.icache.demand_accesses::total      8939788                       # number of demand (read+write) accesses
system.cpu.icache.overall_accesses::cpu.inst      8939788                       # number of overall (read+write) accesses
system.cpu.icache.overall_accesses::total      8939788                       # number of overall (read+write) accesses
system.cpu.icache.ReadReq_miss_rate::cpu.inst     0.000004                       # miss rate for ReadReq accesses
system.cpu.icache.ReadReq_miss_rate::total     0.000004                       # miss rate for ReadReq accesses
system.cpu.icache.demand_miss_rate::cpu.inst     0.000004                       # miss rate for demand accesses
system.cpu.icache.demand_miss_rate::total     0.000004                       # miss rate for demand accesses
system.cpu.icache.overall_miss_rate::cpu.inst     0.000004                       # miss rate for overall accesses
system.cpu.icache.overall_miss_rate::total     0.000004                       # miss rate for overall accesses
system.cpu.icache.ReadReq_avg_miss_latency::cpu.inst 56878.378378                       # average ReadReq miss latency
system.cpu.icache.ReadReq_avg_miss_latency::total 56878.378378                       # average ReadReq miss latency
system.cpu.icache.demand_avg_miss_latency::cpu.inst 56878.378378                       # average overall miss latency
system.cpu.icache.demand_avg_miss_latency::total 56878.378378                       # average overall miss latency
system.cpu.icache.overall_avg_miss_latency::cpu.inst 56878.378378                       # average overall miss latency
system.cpu.icache.overall_avg_miss_latency::total 56878.378378                       # average overall miss latency
system.cpu.icache.blocked_cycles::no_mshrs            0                       # number of cycles access was blocked
system.cpu.icache.blocked_cycles::no_targets            0                       # number of cycles access was blocked
system.cpu.icache.blocked::no_mshrs                 0                       # number of cycles access was blocked
system.cpu.icache.blocked::no_targets               0                       # number of cycles access was blocked
system.cpu.icache.avg_blocked_cycles::no_mshrs          nan                       # average number of cycles each access was blocked
system.cpu.icache.avg_blocked_cycles::no_targets          nan                       # average number of cycles each access was blocked
system.cpu.icache.fast_writes                       0                       # number of fast writes performed
system.cpu.icache.cache_copies                      0                       # number of cache copies performed
system.cpu.icache.ReadReq_mshr_hits::cpu.inst            1                       # number of ReadReq MSHR hits
system.cpu.icache.ReadReq_mshr_hits::total            1                       # number of ReadReq MSHR hits
system.cpu.icache.demand_mshr_hits::cpu.inst            1                       # number of demand (read+write) MSHR hits
system.cpu.icache.demand_mshr_hits::total            1                       # number of demand (read+write) MSHR hits
system.cpu.icache.overall_mshr_hits::cpu.inst            1                       # number of overall MSHR hits
system.cpu.icache.overall_mshr_hits::total            1                       # number of overall MSHR hits
system.cpu.icache.ReadReq_mshr_misses::cpu.inst           36                       # number of ReadReq MSHR misses
system.cpu.icache.ReadReq_mshr_misses::total           36                       # number of ReadReq MSHR misses
system.cpu.icache.demand_mshr_misses::cpu.inst           36                       # number of demand (read+write) MSHR misses
system.cpu.icache.demand_mshr_misses::total           36                       # number of demand (read+write) MSHR misses
system.cpu.icache.overall_mshr_misses::cpu.inst           36                       # number of overall MSHR misses
system.cpu.icache.overall_mshr_misses::total           36                       # number of overall MSHR misses
system.cpu.icache.ReadReq_mshr_miss_latency::cpu.inst      1979000                       # number of ReadReq MSHR miss cycles
system.cpu.icache.ReadReq_mshr_miss_latency::total      1979000                       # number of ReadReq MSHR miss cycles
system.cpu.icache.demand_mshr_miss_latency::cpu.inst      1979000                       # number of demand (read+write) MSHR miss cycles
system.cpu.icache.demand_mshr_miss_latency::total      1979000                       # number of demand (read+write) MSHR miss cycles
system.cpu.icache.overall_mshr_miss_latency::cpu.inst      1979000                       # number of overall MSHR miss cycles
system.cpu.icache.overall_mshr_miss_latency::total      1979000                       # number of overall MSHR miss cycles
system.cpu.icache.ReadReq_mshr_miss_rate::cpu.inst     0.000004                       # mshr miss rate for ReadReq accesses
system.cpu.icache.ReadReq_mshr_miss_rate::total     0.000004                       # mshr miss rate for ReadReq accesses
system.cpu.icache.demand_mshr_miss_rate::cpu.inst     0.000004                       # mshr miss rate for demand accesses
system.cpu.icache.demand_mshr_miss_rate::total     0.000004                       # mshr miss rate for demand accesses
system.cpu.icache.overall_mshr_miss_rate::cpu.inst     0.000004                       # mshr miss rate for overall accesses
system.cpu.icache.overall_mshr_miss_rate::total     0.000004                       # mshr miss rate for overall accesses
system.cpu.icache.ReadReq_avg_mshr_miss_latency::cpu.inst 54972.222222                       # average ReadReq mshr miss latency
system.cpu.icache.ReadReq_avg_mshr_miss_latency::total 54972.222222                       # average ReadReq mshr miss latency
system.cpu.icache.demand_avg_mshr_miss_latency::cpu.inst 54972.222222                       # average overall mshr miss latency
system.cpu.icache.demand_avg_mshr_miss_latency::total 54972.222222                       # average overall mshr miss latency
system.cpu.icache.overall_avg_mshr_miss_latency::cpu.inst 54972.222222                       # average overall mshr miss latency
system.cpu.icache.overall_avg_mshr_miss_latency::total 54972.222222                       # average overall mshr miss latency
system.cpu.icache.no_allocate_misses                0                       # Number of misses that were no-allocate
system.cpu.dcache.replacements                1557564                       # number of replacements
system.cpu.dcache.tagsinuse                511.669049                       # Cycle average of tags in use
system.cpu.dcache.total_refs                 29508706                       # Total number of references to valid blocks.
system.cpu.dcache.sampled_refs                1558076                       # Sample count of references to valid blocks.
system.cpu.dcache.avg_refs                  18.939196                       # Average number of references to valid blocks.
system.cpu.dcache.warmup_cycle           15513723193000                       # Cycle when the warmup percentage was hit.
system.cpu.dcache.occ_blocks::cpu.data     511.669049                       # Average occupied blocks per requestor
system.cpu.dcache.occ_percent::cpu.data      0.999354                       # Average percentage of cache occupancy
system.cpu.dcache.occ_percent::total         0.999354                       # Average percentage of cache occupancy
system.cpu.dcache.ReadReq_hits::cpu.data     23974643                       # number of ReadReq hits
system.cpu.dcache.ReadReq_hits::total        23974643                       # number of ReadReq hits
system.cpu.dcache.WriteReq_hits::cpu.data      5534063                       # number of WriteReq hits
system.cpu.dcache.WriteReq_hits::total        5534063                       # number of WriteReq hits
system.cpu.dcache.demand_hits::cpu.data      29508706                       # number of demand (read+write) hits
system.cpu.dcache.demand_hits::total         29508706                       # number of demand (read+write) hits
system.cpu.dcache.overall_hits::cpu.data     29508706                       # number of overall hits
system.cpu.dcache.overall_hits::total        29508706                       # number of overall hits
system.cpu.dcache.ReadReq_misses::cpu.data      2192301                       # number of ReadReq misses
system.cpu.dcache.ReadReq_misses::total       2192301                       # number of ReadReq misses
system.cpu.dcache.WriteReq_misses::cpu.data       238074                       # number of WriteReq misses
system.cpu.dcache.WriteReq_misses::total       238074                       # number of WriteReq misses
system.cpu.dcache.demand_misses::cpu.data      2430375                       # number of demand (read+write) misses
system.cpu.dcache.demand_misses::total        2430375                       # number of demand (read+write) misses
system.cpu.dcache.overall_misses::cpu.data      2430375                       # number of overall misses
system.cpu.dcache.overall_misses::total       2430375                       # number of overall misses
system.cpu.dcache.ReadReq_miss_latency::cpu.data 116508818000                       # number of ReadReq miss cycles
system.cpu.dcache.ReadReq_miss_latency::total 116508818000                       # number of ReadReq miss cycles
system.cpu.dcache.WriteReq_miss_latency::cpu.data  13159655500                       # number of WriteReq miss cycles
system.cpu.dcache.WriteReq_miss_latency::total  13159655500                       # number of WriteReq miss cycles
system.cpu.dcache.demand_miss_latency::cpu.data 129668473500                       # number of demand (read+write) miss cycles
system.cpu.dcache.demand_miss_latency::total 129668473500                       # number of demand (read+write) miss cycles
system.cpu.dcache.overall_miss_latency::cpu.data 129668473500                       # number of overall miss cycles
system.cpu.dcache.overall_miss_latency::total 129668473500                       # number of overall miss cycles
system.cpu.dcache.ReadReq_accesses::cpu.data     26166944                       # number of ReadReq accesses(hits+misses)
system.cpu.dcache.ReadReq_accesses::total     26166944                       # number of ReadReq accesses(hits+misses)
system.cpu.dcache.WriteReq_accesses::cpu.data      5772137                       # number of WriteReq accesses(hits+misses)
system.cpu.dcache.WriteReq_accesses::total      5772137                       # number of WriteReq accesses(hits+misses)
system.cpu.dcache.demand_accesses::cpu.data     31939081                       # number of demand (read+write) accesses
system.cpu.dcache.demand_accesses::total     31939081                       # number of demand (read+write) accesses
system.cpu.dcache.overall_accesses::cpu.data     31939081                       # number of overall (read+write) accesses
system.cpu.dcache.overall_accesses::total     31939081                       # number of overall (read+write) accesses
system.cpu.dcache.ReadReq_miss_rate::cpu.data     0.083781                       # miss rate for ReadReq accesses
system.cpu.dcache.ReadReq_miss_rate::total     0.083781                       # miss rate for ReadReq accesses
system.cpu.dcache.WriteReq_miss_rate::cpu.data     0.041245                       # miss rate for WriteReq accesses
system.cpu.dcache.WriteReq_miss_rate::total     0.041245                       # miss rate for WriteReq accesses
system.cpu.dcache.demand_miss_rate::cpu.data     0.076094                       # miss rate for demand accesses
system.cpu.dcache.demand_miss_rate::total     0.076094                       # miss rate for demand accesses
system.cpu.dcache.overall_miss_rate::cpu.data     0.076094                       # miss rate for overall accesses
system.cpu.dcache.overall_miss_rate::total     0.076094                       # miss rate for overall accesses
system.cpu.dcache.ReadReq_avg_miss_latency::cpu.data 53144.535353                       # average ReadReq miss latency
system.cpu.dcache.ReadReq_avg_miss_latency::total 53144.535353                       # average ReadReq miss latency
system.cpu.dcache.WriteReq_avg_miss_latency::cpu.data 55275.483673                       # average WriteReq miss latency
system.cpu.dcache.WriteReq_avg_miss_latency::total 55275.483673                       # average WriteReq miss latency
system.cpu.dcache.demand_avg_miss_latency::cpu.data 53353.278198                       # average overall miss latency
system.cpu.dcache.demand_avg_miss_latency::total 53353.278198                       # average overall miss latency
system.cpu.dcache.overall_avg_miss_latency::cpu.data 53353.278198                       # average overall miss latency
system.cpu.dcache.overall_avg_miss_latency::total 53353.278198                       # average overall miss latency
system.cpu.dcache.blocked_cycles::no_mshrs            0                       # number of cycles access was blocked
system.cpu.dcache.blocked_cycles::no_targets            0                       # number of cycles access was blocked
system.cpu.dcache.blocked::no_mshrs                 0                       # number of cycles access was blocked
system.cpu.dcache.blocked::no_targets               0                       # number of cycles access was blocked
system.cpu.dcache.avg_blocked_cycles::no_mshrs          nan                       # average number of cycles each access was blocked
system.cpu.dcache.avg_blocked_cycles::no_targets          nan                       # average number of cycles each access was blocked
system.cpu.dcache.fast_writes                       0                       # number of fast writes performed
system.cpu.dcache.cache_copies                      0                       # number of cache copies performed
system.cpu.dcache.writebacks::writebacks       542391                       # number of writebacks
system.cpu.dcache.writebacks::total            542391                       # number of writebacks
system.cpu.dcache.ReadReq_mshr_hits::cpu.data       872299                       # number of ReadReq MSHR hits
system.cpu.dcache.ReadReq_mshr_hits::total       872299                       # number of ReadReq MSHR hits
system.cpu.dcache.demand_mshr_hits::cpu.data       872299                       # number of demand (read+write) MSHR hits
system.cpu.dcache.demand_mshr_hits::total       872299                       # number of demand (read+write) MSHR hits
system.cpu.dcache.overall_mshr_hits::cpu.data       872299                       # number of overall MSHR hits
system.cpu.dcache.overall_mshr_hits::total       872299                       # number of overall MSHR hits
system.cpu.dcache.ReadReq_mshr_misses::cpu.data      1320002                       # number of ReadReq MSHR misses
system.cpu.dcache.ReadReq_mshr_misses::total      1320002                       # number of ReadReq MSHR misses
system.cpu.dcache.WriteReq_mshr_misses::cpu.data       238074                       # number of WriteReq MSHR misses
system.cpu.dcache.WriteReq_mshr_misses::total       238074                       # number of WriteReq MSHR misses
system.cpu.dcache.demand_mshr_misses::cpu.data      1558076                       # number of demand (read+write) MSHR misses
system.cpu.dcache.demand_mshr_misses::total      1558076                       # number of demand (read+write) MSHR misses
system.cpu.dcache.overall_mshr_misses::cpu.data      1558076                       # number of overall MSHR misses
system.cpu.dcache.overall_mshr_misses::total      1558076                       # number of overall MSHR misses
system.cpu.dcache.ReadReq_mshr_miss_latency::cpu.data  72282146000                       # number of ReadReq MSHR miss cycles
system.cpu.dcache.ReadReq_mshr_miss_latency::total  72282146000                       # number of ReadReq MSHR miss cycles
system.cpu.dcache.WriteReq_mshr_miss_latency::cpu.data  12683507500                       # number of WriteReq MSHR miss cycles
system.cpu.dcache.WriteReq_mshr_miss_latency::total  12683507500                       # number of WriteReq MSHR miss cycles
system.cpu.dcache.demand_mshr_miss_latency::cpu.data  84965653500                       # number of demand (read+write) MSHR miss cycles
system.cpu.dcache.demand_mshr_miss_latency::total  84965653500                       # number of demand (read+write) MSHR miss cycles
system.cpu.dcache.overall_mshr_miss_latency::cpu.data  84965653500                       # number of overall MSHR miss cycles
system.cpu.dcache.overall_mshr_miss_latency::total  84965653500                       # number of overall MSHR miss cycles
system.cpu.dcache.ReadReq_mshr_miss_rate::cpu.data     0.050445                       # mshr miss rate for ReadReq accesses
system.cpu.dcache.ReadReq_mshr_miss_rate::total     0.050445                       # mshr miss rate for ReadReq accesses
system.cpu.dcache.WriteReq_mshr_miss_rate::cpu.data     0.041245                       # mshr miss rate for WriteReq accesses
system.cpu.dcache.WriteReq_mshr_miss_rate::total     0.041245                       # mshr miss rate for WriteReq accesses
system.cpu.dcache.demand_mshr_miss_rate::cpu.data     0.048783                       # mshr miss rate for demand accesses
system.cpu.dcache.demand_mshr_miss_rate::total     0.048783                       # mshr miss rate for demand accesses
system.cpu.dcache.overall_mshr_miss_rate::cpu.data     0.048783                       # mshr miss rate for overall accesses
system.cpu.dcache.overall_mshr_miss_rate::total     0.048783                       # mshr miss rate for overall accesses
system.cpu.dcache.ReadReq_avg_mshr_miss_latency::cpu.data 54759.118547                       # average ReadReq mshr miss latency
system.cpu.dcache.ReadReq_avg_mshr_miss_latency::total 54759.118547                       # average ReadReq mshr miss latency
system.cpu.dcache.WriteReq_avg_mshr_miss_latency::cpu.data 53275.483673                       # average WriteReq mshr miss latency
system.cpu.dcache.WriteReq_avg_mshr_miss_latency::total 53275.483673                       # average WriteReq mshr miss latency
system.cpu.dcache.demand_avg_mshr_miss_latency::cpu.data 54532.419150                       # average overall mshr miss latency
system.cpu.dcache.demand_avg_mshr_miss_latency::total 54532.419150                       # average overall mshr miss latency
system.cpu.dcache.overall_avg_mshr_miss_latency::cpu.data 54532.419150                       # average overall mshr miss latency
system.cpu.dcache.overall_avg_mshr_miss_latency::total 54532.419150                       # average overall mshr miss latency
system.cpu.dcache.no_allocate_misses                0                       # Number of misses that were no-allocate

---------- End Simulation Statistics   ----------
