
---------- Begin Simulation Statistics ----------
sim_seconds                                  0.296775                       # Number of seconds simulated
sim_ticks                                296774540000                       # Number of ticks simulated
final_tick                               15810270129000                       # Number of ticks from beginning of simulation (restored from checkpoints and never reset)
sim_freq                                 1000000000000                       # Frequency of simulated ticks
host_inst_rate                                  42318                       # Simulator instruction rate (inst/s)
host_op_rate                                    55219                       # Simulator op (including micro ops) rate (op/s)
host_tick_rate                              125587732                       # Simulator tick rate (ticks/s)
host_mem_usage                                2432400                       # Number of bytes of host memory used
host_seconds                                  2363.09                       # Real time elapsed on the host
sim_insts                                   100000002                       # Number of instructions simulated
sim_ops                                     130488358                       # Number of ops (including micro ops) simulated
system.physmem.bytes_read::cpu.inst              2240                       # Number of bytes read from this memory
system.physmem.bytes_read::cpu.data          99692096                       # Number of bytes read from this memory
system.physmem.bytes_read::total             99694336                       # Number of bytes read from this memory
system.physmem.bytes_inst_read::cpu.inst         2240                       # Number of instructions bytes read from this memory
system.physmem.bytes_inst_read::total            2240                       # Number of instructions bytes read from this memory
system.physmem.bytes_written::writebacks     34566016                       # Number of bytes written to this memory
system.physmem.bytes_written::total          34566016                       # Number of bytes written to this memory
system.physmem.num_reads::cpu.inst                 35                       # Number of read requests responded to by this memory
system.physmem.num_reads::cpu.data            1557689                       # Number of read requests responded to by this memory
system.physmem.num_reads::total               1557724                       # Number of read requests responded to by this memory
system.physmem.num_writes::writebacks          540094                       # Number of write requests responded to by this memory
system.physmem.num_writes::total               540094                       # Number of write requests responded to by this memory
system.physmem.bw_read::cpu.inst                 7548                       # Total read bandwidth from this memory (bytes/s)
system.physmem.bw_read::cpu.data            335918627                       # Total read bandwidth from this memory (bytes/s)
system.physmem.bw_read::total               335926175                       # Total read bandwidth from this memory (bytes/s)
system.physmem.bw_inst_read::cpu.inst            7548                       # Instruction read bandwidth from this memory (bytes/s)
system.physmem.bw_inst_read::total               7548                       # Instruction read bandwidth from this memory (bytes/s)
system.physmem.bw_write::writebacks         116472309                       # Write bandwidth from this memory (bytes/s)
system.physmem.bw_write::total              116472309                       # Write bandwidth from this memory (bytes/s)
system.physmem.bw_total::writebacks         116472309                       # Total bandwidth to/from this memory (bytes/s)
system.physmem.bw_total::cpu.inst                7548                       # Total bandwidth to/from this memory (bytes/s)
system.physmem.bw_total::cpu.data           335918627                       # Total bandwidth to/from this memory (bytes/s)
system.physmem.bw_total::total              452398484                       # Total bandwidth to/from this memory (bytes/s)
system.l2.replacements                        1553629                       # number of replacements
system.l2.tagsinuse                       4018.394578                       # Cycle average of tags in use
system.l2.total_refs                           304703                       # Total number of references to valid blocks.
system.l2.sampled_refs                        1557725                       # Sample count of references to valid blocks.
system.l2.avg_refs                           0.195608                       # Average number of references to valid blocks.
system.l2.warmup_cycle                   15763419102000                       # Cycle when the warmup percentage was hit.
system.l2.occ_blocks::writebacks          2615.439425                       # Average occupied blocks per requestor
system.l2.occ_blocks::cpu.inst               0.283117                       # Average occupied blocks per requestor
system.l2.occ_blocks::cpu.data            1402.672036                       # Average occupied blocks per requestor
system.l2.occ_percent::writebacks            0.638535                       # Average percentage of cache occupancy
system.l2.occ_percent::cpu.inst              0.000069                       # Average percentage of cache occupancy
system.l2.occ_percent::cpu.data              0.342449                       # Average percentage of cache occupancy
system.l2.occ_percent::total                 0.981053                       # Average percentage of cache occupancy
system.l2.ReadReq_hits::cpu.data                  387                       # number of ReadReq hits
system.l2.ReadReq_hits::total                     387                       # number of ReadReq hits
system.l2.Writeback_hits::writebacks           542391                       # number of Writeback hits
system.l2.Writeback_hits::total                542391                       # number of Writeback hits
system.l2.demand_hits::cpu.data                   387                       # number of demand (read+write) hits
system.l2.demand_hits::total                      387                       # number of demand (read+write) hits
system.l2.overall_hits::cpu.data                  387                       # number of overall hits
system.l2.overall_hits::total                     387                       # number of overall hits
system.l2.ReadReq_misses::cpu.inst                 35                       # number of ReadReq misses
system.l2.ReadReq_misses::cpu.data            1319615                       # number of ReadReq misses
system.l2.ReadReq_misses::total               1319650                       # number of ReadReq misses
system.l2.ReadExReq_misses::cpu.data           238074                       # number of ReadExReq misses
system.l2.ReadExReq_misses::total              238074                       # number of ReadExReq misses
system.l2.demand_misses::cpu.inst                  35                       # number of demand (read+write) misses
system.l2.demand_misses::cpu.data             1557689                       # number of demand (read+write) misses
system.l2.demand_misses::total                1557724                       # number of demand (read+write) misses
system.l2.overall_misses::cpu.inst                 35                       # number of overall misses
system.l2.overall_misses::cpu.data            1557689                       # number of overall misses
system.l2.overall_misses::total               1557724                       # number of overall misses
system.l2.ReadReq_miss_latency::cpu.inst      1862000                       # number of ReadReq miss cycles
system.l2.ReadReq_miss_latency::cpu.data  70824137500                       # number of ReadReq miss cycles
system.l2.ReadReq_miss_latency::total     70825999500                       # number of ReadReq miss cycles
system.l2.ReadExReq_miss_latency::cpu.data  12457566000                       # number of ReadExReq miss cycles
system.l2.ReadExReq_miss_latency::total   12457566000                       # number of ReadExReq miss cycles
system.l2.demand_miss_latency::cpu.inst       1862000                       # number of demand (read+write) miss cycles
system.l2.demand_miss_latency::cpu.data   83281703500                       # number of demand (read+write) miss cycles
system.l2.demand_miss_latency::total      83283565500                       # number of demand (read+write) miss cycles
system.l2.overall_miss_latency::cpu.inst      1862000                       # number of overall miss cycles
system.l2.overall_miss_latency::cpu.data  83281703500                       # number of overall miss cycles
system.l2.overall_miss_latency::total     83283565500                       # number of overall miss cycles
system.l2.ReadReq_accesses::cpu.inst               35                       # number of ReadReq accesses(hits+misses)
system.l2.ReadReq_accesses::cpu.data          1320002                       # number of ReadReq accesses(hits+misses)
system.l2.ReadReq_accesses::total             1320037                       # number of ReadReq accesses(hits+misses)
system.l2.Writeback_accesses::writebacks       542391                       # number of Writeback accesses(hits+misses)
system.l2.Writeback_accesses::total            542391                       # number of Writeback accesses(hits+misses)
system.l2.ReadExReq_accesses::cpu.data         238074                       # number of ReadExReq accesses(hits+misses)
system.l2.ReadExReq_accesses::total            238074                       # number of ReadExReq accesses(hits+misses)
system.l2.demand_accesses::cpu.inst                35                       # number of demand (read+write) accesses
system.l2.demand_accesses::cpu.data           1558076                       # number of demand (read+write) accesses
system.l2.demand_accesses::total              1558111                       # number of demand (read+write) accesses
system.l2.overall_accesses::cpu.inst               35                       # number of overall (read+write) accesses
system.l2.overall_accesses::cpu.data          1558076                       # number of overall (read+write) accesses
system.l2.overall_accesses::total             1558111                       # number of overall (read+write) accesses
system.l2.ReadReq_miss_rate::cpu.inst               1                       # miss rate for ReadReq accesses
system.l2.ReadReq_miss_rate::cpu.data        0.999707                       # miss rate for ReadReq accesses
system.l2.ReadReq_miss_rate::total           0.999707                       # miss rate for ReadReq accesses
system.l2.ReadExReq_miss_rate::cpu.data             1                       # miss rate for ReadExReq accesses
system.l2.ReadExReq_miss_rate::total                1                       # miss rate for ReadExReq accesses
system.l2.demand_miss_rate::cpu.inst                1                       # miss rate for demand accesses
system.l2.demand_miss_rate::cpu.data         0.999752                       # miss rate for demand accesses
system.l2.demand_miss_rate::total            0.999752                       # miss rate for demand accesses
system.l2.overall_miss_rate::cpu.inst               1                       # miss rate for overall accesses
system.l2.overall_miss_rate::cpu.data        0.999752                       # miss rate for overall accesses
system.l2.overall_miss_rate::total           0.999752                       # miss rate for overall accesses
system.l2.ReadReq_avg_miss_latency::cpu.inst        53200                       # average ReadReq miss latency
system.l2.ReadReq_avg_miss_latency::cpu.data 53670.303460                       # average ReadReq miss latency
system.l2.ReadReq_avg_miss_latency::total 53670.290986                       # average ReadReq miss latency
system.l2.ReadExReq_avg_miss_latency::cpu.data 52326.444719                       # average ReadExReq miss latency
system.l2.ReadExReq_avg_miss_latency::total 52326.444719                       # average ReadExReq miss latency
system.l2.demand_avg_miss_latency::cpu.inst        53200                       # average overall miss latency
system.l2.demand_avg_miss_latency::cpu.data 53464.910839                       # average overall miss latency
system.l2.demand_avg_miss_latency::total 53464.904887                       # average overall miss latency
system.l2.overall_avg_miss_latency::cpu.inst        53200                       # average overall miss latency
system.l2.overall_avg_miss_latency::cpu.data 53464.910839                       # average overall miss latency
system.l2.overall_avg_miss_latency::total 53464.904887                       # average overall miss latency
system.l2.blocked_cycles::no_mshrs                  0                       # number of cycles access was blocked
system.l2.blocked_cycles::no_targets                0                       # number of cycles access was blocked
system.l2.blocked::no_mshrs                         0                       # number of cycles access was blocked
system.l2.blocked::no_targets                       0                       # number of cycles access was blocked
system.l2.avg_blocked_cycles::no_mshrs            nan                       # average number of cycles each access was blocked
system.l2.avg_blocked_cycles::no_targets          nan                       # average number of cycles each access was blocked
system.l2.fast_writes                               0                       # number of fast writes performed
system.l2.cache_copies                              0                       # number of cache copies performed
system.l2.writebacks::writebacks               540094                       # number of writebacks
system.l2.writebacks::total                    540094                       # number of writebacks
system.l2.ReadReq_mshr_misses::cpu.inst            35                       # number of ReadReq MSHR misses
system.l2.ReadReq_mshr_misses::cpu.data       1319615                       # number of ReadReq MSHR misses
system.l2.ReadReq_mshr_misses::total          1319650                       # number of ReadReq MSHR misses
system.l2.ReadExReq_mshr_misses::cpu.data       238074                       # number of ReadExReq MSHR misses
system.l2.ReadExReq_mshr_misses::total         238074                       # number of ReadExReq MSHR misses
system.l2.demand_mshr_misses::cpu.inst             35                       # number of demand (read+write) MSHR misses
system.l2.demand_mshr_misses::cpu.data        1557689                       # number of demand (read+write) MSHR misses
system.l2.demand_mshr_misses::total           1557724                       # number of demand (read+write) MSHR misses
system.l2.overall_mshr_misses::cpu.inst            35                       # number of overall MSHR misses
system.l2.overall_mshr_misses::cpu.data       1557689                       # number of overall MSHR misses
system.l2.overall_mshr_misses::total          1557724                       # number of overall MSHR misses
system.l2.ReadReq_mshr_miss_latency::cpu.inst      1433000                       # number of ReadReq MSHR miss cycles
system.l2.ReadReq_mshr_miss_latency::cpu.data  54666156000                       # number of ReadReq MSHR miss cycles
system.l2.ReadReq_mshr_miss_latency::total  54667589000                       # number of ReadReq MSHR miss cycles
system.l2.ReadExReq_mshr_miss_latency::cpu.data   9522988000                       # number of ReadExReq MSHR miss cycles
system.l2.ReadExReq_mshr_miss_latency::total   9522988000                       # number of ReadExReq MSHR miss cycles
system.l2.demand_mshr_miss_latency::cpu.inst      1433000                       # number of demand (read+write) MSHR miss cycles
system.l2.demand_mshr_miss_latency::cpu.data  64189144000                       # number of demand (read+write) MSHR miss cycles
system.l2.demand_mshr_miss_latency::total  64190577000                       # number of demand (read+write) MSHR miss cycles
system.l2.overall_mshr_miss_latency::cpu.inst      1433000                       # number of overall MSHR miss cycles
system.l2.overall_mshr_miss_latency::cpu.data  64189144000                       # number of overall MSHR miss cycles
system.l2.overall_mshr_miss_latency::total  64190577000                       # number of overall MSHR miss cycles
system.l2.ReadReq_mshr_miss_rate::cpu.inst            1                       # mshr miss rate for ReadReq accesses
system.l2.ReadReq_mshr_miss_rate::cpu.data     0.999707                       # mshr miss rate for ReadReq accesses
system.l2.ReadReq_mshr_miss_rate::total      0.999707                       # mshr miss rate for ReadReq accesses
system.l2.ReadExReq_mshr_miss_rate::cpu.data            1                       # mshr miss rate for ReadExReq accesses
system.l2.ReadExReq_mshr_miss_rate::total            1                       # mshr miss rate for ReadExReq accesses
system.l2.demand_mshr_miss_rate::cpu.inst            1                       # mshr miss rate for demand accesses
system.l2.demand_mshr_miss_rate::cpu.data     0.999752                       # mshr miss rate for demand accesses
system.l2.demand_mshr_miss_rate::total       0.999752                       # mshr miss rate for demand accesses
system.l2.overall_mshr_miss_rate::cpu.inst            1                       # mshr miss rate for overall accesses
system.l2.overall_mshr_miss_rate::cpu.data     0.999752                       # mshr miss rate for overall accesses
system.l2.overall_mshr_miss_rate::total      0.999752                       # mshr miss rate for overall accesses
system.l2.ReadReq_avg_mshr_miss_latency::cpu.inst 40942.857143                       # average ReadReq mshr miss latency
system.l2.ReadReq_avg_mshr_miss_latency::cpu.data 41425.837081                       # average ReadReq mshr miss latency
system.l2.ReadReq_avg_mshr_miss_latency::total 41425.824272                       # average ReadReq mshr miss latency
system.l2.ReadExReq_avg_mshr_miss_latency::cpu.data 40000.117610                       # average ReadExReq mshr miss latency
system.l2.ReadExReq_avg_mshr_miss_latency::total 40000.117610                       # average ReadExReq mshr miss latency
system.l2.demand_avg_mshr_miss_latency::cpu.inst 40942.857143                       # average overall mshr miss latency
system.l2.demand_avg_mshr_miss_latency::cpu.data 41207.933034                       # average overall mshr miss latency
system.l2.demand_avg_mshr_miss_latency::total 41207.927078                       # average overall mshr miss latency
system.l2.overall_avg_mshr_miss_latency::cpu.inst 40942.857143                       # average overall mshr miss latency
system.l2.overall_avg_mshr_miss_latency::cpu.data 41207.933034                       # average overall mshr miss latency
system.l2.overall_avg_mshr_miss_latency::total 41207.927078                       # average overall mshr miss latency
system.l2.no_allocate_misses                        0                       # Number of misses that were no-allocate
system.cpu.branchPred.lookups                 3570732                       # Number of BP lookups
system.cpu.branchPred.condPredicted           3570732                       # Number of conditional branches predicted
system.cpu.branchPred.condIncorrect               102                       # Number of conditional branches incorrect
system.cpu.branchPred.BTBLookups              2679910                       # Number of BTB lookups
system.cpu.branchPred.BTBHits                 2679874                       # Number of BTB hits
system.cpu.branchPred.BTBCorrect                    0                       # Number of correct BTB predictions (this stat may not work properly.
system.cpu.branchPred.BTBHitPct             99.998657                       # BTB Hit Percentage
system.cpu.branchPred.usedRAS                       0                       # Number of times the RAS was used to get a target.
system.cpu.branchPred.RASInCorrect                  0                       # Number of incorrect RAS predictions.
system.cpu.workload.num_syscalls                    0                       # Number of system calls
system.cpu.numCycles                        594935967                       # number of cpu cycles simulated
system.cpu.numWorkItemsStarted                      0                       # number of work items this cpu started
system.cpu.numWorkItemsCompleted                    0                       # number of work items this cpu completed
system.cpu.fetch.icacheStallCycles            8941680                       # Number of cycles fetch is stalled on an Icache miss
system.cpu.fetch.Insts                      100000593                       # Number of instructions fetch has processed
system.cpu.fetch.Branches                     3570732                       # Number of branches that fetch encountered
system.cpu.fetch.predictedBranches            2679874                       # Number of branches that fetch has predicted taken
system.cpu.fetch.Cycles                      37657576                       # Number of cycles fetch has run and was not squashing or blocked
system.cpu.fetch.SquashCycles                     296                       # Number of cycles fetch has spent squashing
system.cpu.fetch.BlockedCycles              490034332                       # Number of cycles fetch has spent blocked
system.cpu.fetch.CacheLines                   8939818                       # Number of cache lines fetched
system.cpu.fetch.IcacheSquashes                    13                       # Number of outstanding Icache misses that were squashed
system.cpu.fetch.rateDist::samples          536633764                       # Number of instructions fetched each cycle (Total)
system.cpu.fetch.rateDist::mean              0.243163                       # Number of instructions fetched each cycle (Total)
system.cpu.fetch.rateDist::stdev             0.934537                       # Number of instructions fetched each cycle (Total)
system.cpu.fetch.rateDist::underflows               0      0.00%      0.00% # Number of instructions fetched each cycle (Total)
system.cpu.fetch.rateDist::0                501265371     93.41%     93.41% # Number of instructions fetched each cycle (Total)
system.cpu.fetch.rateDist::1                   987663      0.18%     93.59% # Number of instructions fetched each cycle (Total)
system.cpu.fetch.rateDist::2                  2736825      0.51%     94.10% # Number of instructions fetched each cycle (Total)
system.cpu.fetch.rateDist::3                  2547602      0.47%     94.58% # Number of instructions fetched each cycle (Total)
system.cpu.fetch.rateDist::4                 29096303      5.42%    100.00% # Number of instructions fetched each cycle (Total)
system.cpu.fetch.rateDist::overflows                0      0.00%    100.00% # Number of instructions fetched each cycle (Total)
system.cpu.fetch.rateDist::min_value                0                       # Number of instructions fetched each cycle (Total)
system.cpu.fetch.rateDist::max_value                4                       # Number of instructions fetched each cycle (Total)
system.cpu.fetch.rateDist::total            536633764                       # Number of instructions fetched each cycle (Total)
system.cpu.fetch.branchRate                  0.006002                       # Number of branch fetches per cycle
system.cpu.fetch.rate                        0.168086                       # Number of inst fetches per cycle
system.cpu.decode.IdleCycles                 37476296                       # Number of cycles decode is idle
system.cpu.decode.BlockedCycles             463788954                       # Number of cycles decode is blocked
system.cpu.decode.RunCycles                  20162272                       # Number of cycles decode is running
system.cpu.decode.UnblockCycles              15206063                       # Number of cycles decode is unblocking
system.cpu.decode.SquashCycles                    176                       # Number of cycles decode is squashing
system.cpu.decode.DecodedInsts              130489117                       # Number of instructions handled by decode
system.cpu.rename.SquashCycles                    176                       # Number of cycles rename is squashing
system.cpu.rename.IdleCycles                 56579347                       # Number of cycles rename is idle
system.cpu.rename.BlockCycles               379323521                       # Number of cycles rename is blocking
system.cpu.rename.serializeStallCycles              0                       # count of cycles rename stalled for serializing inst
system.cpu.rename.RunCycles                  21662286                       # Number of cycles rename is running
system.cpu.rename.UnblockCycles              79068433                       # Number of cycles rename is unblocking
system.cpu.rename.RenamedInsts              130488936                       # Number of instructions processed by rename
system.cpu.rename.IQFullEvents               73240739                       # Number of times rename has blocked due to IQ full
system.cpu.rename.RenamedOperands           148157861                       # Number of destination operands rename has renamed
system.cpu.rename.RenameLookups             329488003                       # Number of register rename lookups that rename has made
system.cpu.rename.int_rename_lookups         72552679                       # Number of integer rename lookups
system.cpu.rename.fp_rename_lookups         256935324                       # Number of floating rename lookups
system.cpu.rename.CommittedMaps             148157086                       # Number of HB maps that are committed
system.cpu.rename.UndoneMaps                      762                       # Number of HB maps that are undone due to squashing
system.cpu.rename.serializingInsts                  0                       # count of serializing insts renamed
system.cpu.rename.tempSerializingInsts              0                       # count of temporary serializing insts renamed
system.cpu.rename.skidInsts                  94579940                       # count of insts added to the skid buffer
system.cpu.memDep0.insertedLoads             26166971                       # Number of loads inserted to the mem dependence unit.
system.cpu.memDep0.insertedStores             5772158                       # Number of stores inserted to the mem dependence unit.
system.cpu.memDep0.conflictingLoads            913801                       # Number of conflicting loads.
system.cpu.memDep0.conflictingStores                0                       # Number of conflicting stores.
system.cpu.iq.iqInstsAdded                  130488778                       # Number of instructions added to the IQ (excludes non-spec)
system.cpu.iq.iqInstsIssued                 130488745                       # Number of instructions issued
system.cpu.iq.iqSquashedInstsExamined             386                       # Number of squashed instructions iterated over during squash; mainly for profiling
system.cpu.iq.iqSquashedOperandsExamined          219                       # Number of squashed operands that are examined and possibly removed from graph
system.cpu.iq.issued_per_cycle::samples     536633764                       # Number of insts issued each cycle
system.cpu.iq.issued_per_cycle::mean         0.243162                       # Number of insts issued each cycle
system.cpu.iq.issued_per_cycle::stdev        0.483659                       # Number of insts issued each cycle
system.cpu.iq.issued_per_cycle::underflows            0      0.00%      0.00% # Number of insts issued each cycle
system.cpu.iq.issued_per_cycle::0           418374597     77.96%     77.96% # Number of insts issued each cycle
system.cpu.iq.issued_per_cycle::1           107186825     19.97%     97.94% # Number of insts issued each cycle
system.cpu.iq.issued_per_cycle::2             9915108      1.85%     99.78% # Number of insts issued each cycle
system.cpu.iq.issued_per_cycle::3             1157232      0.22%    100.00% # Number of insts issued each cycle
system.cpu.iq.issued_per_cycle::4                   2      0.00%    100.00% # Number of insts issued each cycle
system.cpu.iq.issued_per_cycle::overflows            0      0.00%    100.00% # Number of insts issued each cycle
system.cpu.iq.issued_per_cycle::min_value            0                       # Number of insts issued each cycle
system.cpu.iq.issued_per_cycle::max_value            4                       # Number of insts issued each cycle
system.cpu.iq.issued_per_cycle::total       536633764                       # Number of insts issued each cycle
system.cpu.iq.fu_full::No_OpClass                   0      0.00%      0.00% # attempts to use FU when none available
system.cpu.iq.fu_full::IntAlu                       0      0.00%      0.00% # attempts to use FU when none available
system.cpu.iq.fu_full::IntMult                      0      0.00%      0.00% # attempts to use FU when none available
system.cpu.iq.fu_full::IntDiv                       0      0.00%      0.00% # attempts to use FU when none available
system.cpu.iq.fu_full::FloatAdd               5427516    100.00%    100.00% # attempts to use FU when none available
system.cpu.iq.fu_full::FloatCmp                     0      0.00%    100.00% # attempts to use FU when none available
system.cpu.iq.fu_full::FloatCvt                     0      0.00%    100.00% # attempts to use FU when none available
system.cpu.iq.fu_full::FloatMult                    0      0.00%    100.00% # attempts to use FU when none available
system.cpu.iq.fu_full::FloatDiv                     0      0.00%    100.00% # attempts to use FU when none available
system.cpu.iq.fu_full::FloatSqrt                    0      0.00%    100.00% # attempts to use FU when none available
system.cpu.iq.fu_full::SimdAdd                      0      0.00%    100.00% # attempts to use FU when none available
system.cpu.iq.fu_full::SimdAddAcc                   0      0.00%    100.00% # attempts to use FU when none available
system.cpu.iq.fu_full::SimdAlu                      0      0.00%    100.00% # attempts to use FU when none available
system.cpu.iq.fu_full::SimdCmp                      0      0.00%    100.00% # attempts to use FU when none available
system.cpu.iq.fu_full::SimdCvt                      0      0.00%    100.00% # attempts to use FU when none available
system.cpu.iq.fu_full::SimdMisc                     0      0.00%    100.00% # attempts to use FU when none available
system.cpu.iq.fu_full::SimdMult                     0      0.00%    100.00% # attempts to use FU when none available
system.cpu.iq.fu_full::SimdMultAcc                  0      0.00%    100.00% # attempts to use FU when none available
system.cpu.iq.fu_full::SimdShift                    0      0.00%    100.00% # attempts to use FU when none available
system.cpu.iq.fu_full::SimdShiftAcc                 0      0.00%    100.00% # attempts to use FU when none available
system.cpu.iq.fu_full::SimdSqrt                     0      0.00%    100.00% # attempts to use FU when none available
system.cpu.iq.fu_full::SimdFloatAdd                 0      0.00%    100.00% # attempts to use FU when none available
system.cpu.iq.fu_full::SimdFloatAlu                 0      0.00%    100.00% # attempts to use FU when none available
system.cpu.iq.fu_full::SimdFloatCmp                 0      0.00%    100.00% # attempts to use FU when none available
system.cpu.iq.fu_full::SimdFloatCvt                 0      0.00%    100.00% # attempts to use FU when none available
system.cpu.iq.fu_full::SimdFloatDiv                 0      0.00%    100.00% # attempts to use FU when none available
system.cpu.iq.fu_full::SimdFloatMisc                0      0.00%    100.00% # attempts to use FU when none available
system.cpu.iq.fu_full::SimdFloatMult                0      0.00%    100.00% # attempts to use FU when none available
system.cpu.iq.fu_full::SimdFloatMultAcc             0      0.00%    100.00% # attempts to use FU when none available
system.cpu.iq.fu_full::SimdFloatSqrt                0      0.00%    100.00% # attempts to use FU when none available
system.cpu.iq.fu_full::MemRead                      0      0.00%    100.00% # attempts to use FU when none available
system.cpu.iq.fu_full::MemWrite                     0      0.00%    100.00% # attempts to use FU when none available
system.cpu.iq.fu_full::IprAccess                    0      0.00%    100.00% # attempts to use FU when none available
system.cpu.iq.fu_full::InstPrefetch                 0      0.00%    100.00% # attempts to use FU when none available
system.cpu.iq.FU_type_0::No_OpClass                12      0.00%      0.00% # Type of FU issued
system.cpu.iq.FU_type_0::IntAlu              38237684     29.30%     29.30% # Type of FU issued
system.cpu.iq.FU_type_0::IntMult                    0      0.00%     29.30% # Type of FU issued
system.cpu.iq.FU_type_0::IntDiv                     0      0.00%     29.30% # Type of FU issued
system.cpu.iq.FU_type_0::FloatAdd            60311936     46.22%     75.52% # Type of FU issued
system.cpu.iq.FU_type_0::FloatCmp                   0      0.00%     75.52% # Type of FU issued
system.cpu.iq.FU_type_0::FloatCvt                   0      0.00%     75.52% # Type of FU issued
system.cpu.iq.FU_type_0::FloatMult                  0      0.00%     75.52% # Type of FU issued
system.cpu.iq.FU_type_0::FloatDiv                   0      0.00%     75.52% # Type of FU issued
system.cpu.iq.FU_type_0::FloatSqrt                  0      0.00%     75.52% # Type of FU issued
system.cpu.iq.FU_type_0::SimdAdd                    0      0.00%     75.52% # Type of FU issued
system.cpu.iq.FU_type_0::SimdAddAcc                 0      0.00%     75.52% # Type of FU issued
system.cpu.iq.FU_type_0::SimdAlu                    0      0.00%     75.52% # Type of FU issued
system.cpu.iq.FU_type_0::SimdCmp                    0      0.00%     75.52% # Type of FU issued
system.cpu.iq.FU_type_0::SimdCvt                    0      0.00%     75.52% # Type of FU issued
system.cpu.iq.FU_type_0::SimdMisc                   0      0.00%     75.52% # Type of FU issued
system.cpu.iq.FU_type_0::SimdMult                   0      0.00%     75.52% # Type of FU issued
system.cpu.iq.FU_type_0::SimdMultAcc                0      0.00%     75.52% # Type of FU issued
system.cpu.iq.FU_type_0::SimdShift                  0      0.00%     75.52% # Type of FU issued
system.cpu.iq.FU_type_0::SimdShiftAcc               0      0.00%     75.52% # Type of FU issued
system.cpu.iq.FU_type_0::SimdSqrt                   0      0.00%     75.52% # Type of FU issued
system.cpu.iq.FU_type_0::SimdFloatAdd               0      0.00%     75.52% # Type of FU issued
system.cpu.iq.FU_type_0::SimdFloatAlu               0      0.00%     75.52% # Type of FU issued
system.cpu.iq.FU_type_0::SimdFloatCmp               0      0.00%     75.52% # Type of FU issued
system.cpu.iq.FU_type_0::SimdFloatCvt               0      0.00%     75.52% # Type of FU issued
system.cpu.iq.FU_type_0::SimdFloatDiv               0      0.00%     75.52% # Type of FU issued
system.cpu.iq.FU_type_0::SimdFloatMisc              0      0.00%     75.52% # Type of FU issued
system.cpu.iq.FU_type_0::SimdFloatMult              0      0.00%     75.52% # Type of FU issued
system.cpu.iq.FU_type_0::SimdFloatMultAcc            0      0.00%     75.52% # Type of FU issued
system.cpu.iq.FU_type_0::SimdFloatSqrt              0      0.00%     75.52% # Type of FU issued
system.cpu.iq.FU_type_0::MemRead             26166969     20.05%     95.58% # Type of FU issued
system.cpu.iq.FU_type_0::MemWrite             5772144      4.42%    100.00% # Type of FU issued
system.cpu.iq.FU_type_0::IprAccess                  0      0.00%    100.00% # Type of FU issued
system.cpu.iq.FU_type_0::InstPrefetch               0      0.00%    100.00% # Type of FU issued
system.cpu.iq.FU_type_0::total              130488745                       # Type of FU issued
system.cpu.iq.rate                           0.219332                       # Inst issue rate
system.cpu.iq.fu_busy_cnt                     5427516                       # FU busy when requested
system.cpu.iq.fu_busy_rate                   0.041594                       # FU busy rate (busy events/executed inst)
system.cpu.iq.int_inst_queue_reads          617072254                       # Number of integer instruction queue reads
system.cpu.iq.int_inst_queue_writes          40219580                       # Number of integer instruction queue writes
system.cpu.iq.int_inst_queue_wakeup_accesses     40219158                       # Number of integer instruction queue wakeup accesses
system.cpu.iq.fp_inst_queue_reads           185966515                       # Number of floating instruction queue reads
system.cpu.iq.fp_inst_queue_writes           90269602                       # Number of floating instruction queue writes
system.cpu.iq.fp_inst_queue_wakeup_accesses     90269470                       # Number of floating instruction queue wakeup accesses
system.cpu.iq.int_alu_accesses               40219233                       # Number of integer alu accesses
system.cpu.iq.fp_alu_accesses                95697016                       # Number of floating point alu accesses
system.cpu.iew.lsq.thread0.forwLoads                0                       # Number of loads that had data forwarded from stores
system.cpu.iew.lsq.thread0.invAddrLoads             0                       # Number of loads ignored due to an invalid address
system.cpu.iew.lsq.thread0.squashedLoads           75                       # Number of loads squashed
system.cpu.iew.lsq.thread0.ignoredResponses            0                       # Number of memory responses ignored because the instruction is squashed
system.cpu.iew.lsq.thread0.memOrderViolation           18                       # Number of memory ordering violations
system.cpu.iew.lsq.thread0.squashedStores           20                       # Number of stores squashed
system.cpu.iew.lsq.thread0.invAddrSwpfs             0                       # Number of software prefetches ignored due to an invalid address
system.cpu.iew.lsq.thread0.blockedLoads             0                       # Number of blocked loads due to partial load-store forwarding
system.cpu.iew.lsq.thread0.rescheduledLoads            0                       # Number of loads that were rescheduled
system.cpu.iew.lsq.thread0.cacheBlocked             0                       # Number of times an access to memory failed due to the cache being blocked
system.cpu.iew.iewIdleCycles                        0                       # Number of cycles IEW is idle
system.cpu.iew.iewSquashCycles                    176                       # Number of cycles IEW is squashing
system.cpu.iew.iewBlockCycles               253880670                       # Number of cycles IEW is blocking
system.cpu.iew.iewUnblockCycles              23070964                       # Number of cycles IEW is unblocking
system.cpu.iew.iewDispatchedInsts           130488778                       # Number of instructions dispatched to IQ
system.cpu.iew.iewDispSquashedInsts                50                       # Number of squashed instructions skipped by dispatch
system.cpu.iew.iewDispLoadInsts              26166971                       # Number of dispatched load instructions
system.cpu.iew.iewDispStoreInsts              5772158                       # Number of dispatched store instructions
system.cpu.iew.iewDispNonSpecInsts                  0                       # Number of dispatched non-speculative instructions
system.cpu.iew.iewIQFullEvents                7919133                       # Number of times the IQ has become full, causing a stall
system.cpu.iew.iewLSQFullEvents                     0                       # Number of times the LSQ has become full, causing a stall
system.cpu.iew.memOrderViolationEvents             18                       # Number of memory order violations
system.cpu.iew.predictedTakenIncorrect              9                       # Number of branches that were predicted taken incorrectly
system.cpu.iew.predictedNotTakenIncorrect           93                       # Number of branches that were predicted not taken incorrectly
system.cpu.iew.branchMispredicts                  102                       # Number of branch mispredicts detected at execute
system.cpu.iew.iewExecutedInsts             130488645                       # Number of executed instructions
system.cpu.iew.iewExecLoadInsts              26166946                       # Number of load instructions executed
system.cpu.iew.iewExecSquashedInsts                99                       # Number of squashed instructions skipped in execute
system.cpu.iew.exec_swp                             0                       # number of swp insts executed
system.cpu.iew.exec_nop                             0                       # number of nop insts executed
system.cpu.iew.exec_refs                     31939090                       # number of memory reference insts executed
system.cpu.iew.exec_branches                  3570687                       # Number of branches executed
system.cpu.iew.exec_stores                    5772144                       # Number of stores executed
system.cpu.iew.exec_rate                     0.219332                       # Inst execution rate
system.cpu.iew.wb_sent                      130488628                       # cumulative count of insts sent to commit
system.cpu.iew.wb_count                     130488628                       # cumulative count of insts written-back
system.cpu.iew.wb_producers                  52705554                       # num instructions producing a value
system.cpu.iew.wb_consumers                  84895830                       # num instructions consuming a value
system.cpu.iew.wb_penalized                         0                       # number of instrctions required to write to 'other' IQ
system.cpu.iew.wb_rate                       0.219332                       # insts written-back per cycle
system.cpu.iew.wb_fanout                     0.620826                       # average fanout of values written-back
system.cpu.iew.wb_penalized_rate                    0                       # fraction of instructions written-back that wrote to 'other' IQ
system.cpu.commit.commitSquashedInsts             413                       # The number of squashed insts skipped by commit
system.cpu.commit.branchMispredicts               102                       # The number of times a branch was mispredicted
system.cpu.commit.committed_per_cycle::samples    536633588                       # Number of insts commited each cycle
system.cpu.commit.committed_per_cycle::mean     0.243161                       # Number of insts commited each cycle
system.cpu.commit.committed_per_cycle::stdev     0.823326                       # Number of insts commited each cycle
system.cpu.commit.committed_per_cycle::underflows            0      0.00%      0.00% # Number of insts commited each cycle
system.cpu.commit.committed_per_cycle::0    481878483     89.80%     89.80% # Number of insts commited each cycle
system.cpu.commit.committed_per_cycle::1     19344391      3.60%     93.40% # Number of insts commited each cycle
system.cpu.commit.committed_per_cycle::2     11535692      2.15%     95.55% # Number of insts commited each cycle
system.cpu.commit.committed_per_cycle::3      7427505      1.38%     96.94% # Number of insts commited each cycle
system.cpu.commit.committed_per_cycle::4     16447517      3.06%    100.00% # Number of insts commited each cycle
system.cpu.commit.committed_per_cycle::overflows            0      0.00%    100.00% # Number of insts commited each cycle
system.cpu.commit.committed_per_cycle::min_value            0                       # Number of insts commited each cycle
system.cpu.commit.committed_per_cycle::max_value            4                       # Number of insts commited each cycle
system.cpu.commit.committed_per_cycle::total    536633588                       # Number of insts commited each cycle
system.cpu.commit.committedInsts            100000002                       # Number of instructions committed
system.cpu.commit.committedOps              130488358                       # Number of ops (including micro ops) committed
system.cpu.commit.swp_count                         0                       # Number of s/w prefetches committed
system.cpu.commit.refs                       31939032                       # Number of memory references committed
system.cpu.commit.loads                      26166894                       # Number of loads committed
system.cpu.commit.membars                           0                       # Number of memory barriers committed
system.cpu.commit.branches                    3570673                       # Number of branches committed
system.cpu.commit.fp_insts                   90269429                       # Number of committed floating point instructions.
system.cpu.commit.int_insts                  70176443                       # Number of committed integer instructions.
system.cpu.commit.function_calls                    0                       # Number of function calls committed.
system.cpu.commit.bw_lim_events              16447517                       # number cycles where commit BW limit reached
system.cpu.commit.bw_limited                        0                       # number of insts not committed due to BW limits
system.cpu.rob.rob_reads                    650674842                       # The number of ROB reads
system.cpu.rob.rob_writes                   260977725                       # The number of ROB writes
system.cpu.timesIdled                         5518429                       # Number of times that the entire CPU went into an idle state and unscheduled itself
system.cpu.idleCycles                        58302203                       # Total number of cycles that the CPU has spent unscheduled due to idling
system.cpu.committedInsts                   100000002                       # Number of Instructions Simulated
system.cpu.committedOps                     130488358                       # Number of Ops (including micro ops) Simulated
system.cpu.committedInsts_total             100000002                       # Number of Instructions Simulated
system.cpu.cpi                               5.949360                       # CPI: Cycles Per Instruction
system.cpu.cpi_total                         5.949360                       # CPI: Total CPI of All Threads
system.cpu.ipc                               0.168085                       # IPC: Instructions Per Cycle
system.cpu.ipc_total                         0.168085                       # IPC: Total IPC of All Threads
system.cpu.int_regfile_reads                122973764                       # number of integer regfile reads
system.cpu.int_regfile_writes                63204778                       # number of integer regfile writes
system.cpu.fp_regfile_reads                 167062365                       # number of floating regfile reads
system.cpu.fp_regfile_writes                 84952706                       # number of floating regfile writes
system.cpu.misc_regfile_reads                39451244                       # number of misc regfile reads
system.cpu.itb_walker_cache.replacements            0                       # number of replacements
system.cpu.itb_walker_cache.tagsinuse               0                       # Cycle average of tags in use
system.cpu.itb_walker_cache.total_refs              0                       # Total number of references to valid blocks.
system.cpu.itb_walker_cache.sampled_refs            0                       # Sample count of references to valid blocks.
system.cpu.itb_walker_cache.avg_refs              nan                       # Average number of references to valid blocks.
system.cpu.itb_walker_cache.warmup_cycle            0                       # Cycle when the warmup percentage was hit.
system.cpu.itb_walker_cache.blocked_cycles::no_mshrs            0                       # number of cycles access was blocked
system.cpu.itb_walker_cache.blocked_cycles::no_targets            0                       # number of cycles access was blocked
system.cpu.itb_walker_cache.blocked::no_mshrs            0                       # number of cycles access was blocked
system.cpu.itb_walker_cache.blocked::no_targets            0                       # number of cycles access was blocked
system.cpu.itb_walker_cache.avg_blocked_cycles::no_mshrs          nan                       # average number of cycles each access was blocked
system.cpu.itb_walker_cache.avg_blocked_cycles::no_targets          nan                       # average number of cycles each access was blocked
system.cpu.itb_walker_cache.fast_writes             0                       # number of fast writes performed
system.cpu.itb_walker_cache.cache_copies            0                       # number of cache copies performed
system.cpu.itb_walker_cache.no_allocate_misses            0                       # Number of misses that were no-allocate
system.cpu.dtb_walker_cache.replacements            0                       # number of replacements
system.cpu.dtb_walker_cache.tagsinuse               0                       # Cycle average of tags in use
system.cpu.dtb_walker_cache.total_refs              0                       # Total number of references to valid blocks.
system.cpu.dtb_walker_cache.sampled_refs            0                       # Sample count of references to valid blocks.
system.cpu.dtb_walker_cache.avg_refs              nan                       # Average number of references to valid blocks.
system.cpu.dtb_walker_cache.warmup_cycle            0                       # Cycle when the warmup percentage was hit.
system.cpu.dtb_walker_cache.blocked_cycles::no_mshrs            0                       # number of cycles access was blocked
system.cpu.dtb_walker_cache.blocked_cycles::no_targets            0                       # number of cycles access was blocked
system.cpu.dtb_walker_cache.blocked::no_mshrs            0                       # number of cycles access was blocked
system.cpu.dtb_walker_cache.blocked::no_targets            0                       # number of cycles access was blocked
system.cpu.dtb_walker_cache.avg_blocked_cycles::no_mshrs          nan                       # average number of cycles each access was blocked
system.cpu.dtb_walker_cache.avg_blocked_cycles::no_targets          nan                       # average number of cycles each access was blocked
system.cpu.dtb_walker_cache.fast_writes             0                       # number of fast writes performed
system.cpu.dtb_walker_cache.cache_copies            0                       # number of cache copies performed
system.cpu.dtb_walker_cache.no_allocate_misses            0                       # Number of misses that were no-allocate
system.cpu.icache.replacements                      0                       # number of replacements
system.cpu.icache.tagsinuse                 22.419698                       # Cycle average of tags in use
system.cpu.icache.total_refs                  8939782                       # Total number of references to valid blocks.
system.cpu.icache.sampled_refs                     35                       # Sample count of references to valid blocks.
system.cpu.icache.avg_refs               255422.342857                       # Average number of references to valid blocks.
system.cpu.icache.warmup_cycle                      0                       # Cycle when the warmup percentage was hit.
system.cpu.icache.occ_blocks::cpu.inst      22.419698                       # Average occupied blocks per requestor
system.cpu.icache.occ_percent::cpu.inst      0.043788                       # Average percentage of cache occupancy
system.cpu.icache.occ_percent::total         0.043788                       # Average percentage of cache occupancy
system.cpu.icache.ReadReq_hits::cpu.inst      8939782                       # number of ReadReq hits
system.cpu.icache.ReadReq_hits::total         8939782                       # number of ReadReq hits
system.cpu.icache.demand_hits::cpu.inst       8939782                       # number of demand (read+write) hits
system.cpu.icache.demand_hits::total          8939782                       # number of demand (read+write) hits
system.cpu.icache.overall_hits::cpu.inst      8939782                       # number of overall hits
system.cpu.icache.overall_hits::total         8939782                       # number of overall hits
system.cpu.icache.ReadReq_misses::cpu.inst           36                       # number of ReadReq misses
system.cpu.icache.ReadReq_misses::total            36                       # number of ReadReq misses
system.cpu.icache.demand_misses::cpu.inst           36                       # number of demand (read+write) misses
system.cpu.icache.demand_misses::total             36                       # number of demand (read+write) misses
system.cpu.icache.overall_misses::cpu.inst           36                       # number of overall misses
system.cpu.icache.overall_misses::total            36                       # number of overall misses
system.cpu.icache.ReadReq_miss_latency::cpu.inst      2020500                       # number of ReadReq miss cycles
system.cpu.icache.ReadReq_miss_latency::total      2020500                       # number of ReadReq miss cycles
system.cpu.icache.demand_miss_latency::cpu.inst      2020500                       # number of demand (read+write) miss cycles
system.cpu.icache.demand_miss_latency::total      2020500                       # number of demand (read+write) miss cycles
system.cpu.icache.overall_miss_latency::cpu.inst      2020500                       # number of overall miss cycles
system.cpu.icache.overall_miss_latency::total      2020500                       # number of overall miss cycles
system.cpu.icache.ReadReq_accesses::cpu.inst      8939818                       # number of ReadReq accesses(hits+misses)
system.cpu.icache.ReadReq_accesses::total      8939818                       # number of ReadReq accesses(hits+misses)
system.cpu.icache.demand_accesses::cpu.inst      8939818                       # number of demand (read+write) accesses
system.cpu.icache.demand_accesses::total      8939818                       # number of demand (read+write) accesses
system.cpu.icache.overall_accesses::cpu.inst      8939818                       # number of overall (read+write) accesses
system.cpu.icache.overall_accesses::total      8939818                       # number of overall (read+write) accesses
system.cpu.icache.ReadReq_miss_rate::cpu.inst     0.000004                       # miss rate for ReadReq accesses
system.cpu.icache.ReadReq_miss_rate::total     0.000004                       # miss rate for ReadReq accesses
system.cpu.icache.demand_miss_rate::cpu.inst     0.000004                       # miss rate for demand accesses
system.cpu.icache.demand_miss_rate::total     0.000004                       # miss rate for demand accesses
system.cpu.icache.overall_miss_rate::cpu.inst     0.000004                       # miss rate for overall accesses
system.cpu.icache.overall_miss_rate::total     0.000004                       # miss rate for overall accesses
system.cpu.icache.ReadReq_avg_miss_latency::cpu.inst        56125                       # average ReadReq miss latency
system.cpu.icache.ReadReq_avg_miss_latency::total        56125                       # average ReadReq miss latency
system.cpu.icache.demand_avg_miss_latency::cpu.inst        56125                       # average overall miss latency
system.cpu.icache.demand_avg_miss_latency::total        56125                       # average overall miss latency
system.cpu.icache.overall_avg_miss_latency::cpu.inst        56125                       # average overall miss latency
system.cpu.icache.overall_avg_miss_latency::total        56125                       # average overall miss latency
system.cpu.icache.blocked_cycles::no_mshrs            0                       # number of cycles access was blocked
system.cpu.icache.blocked_cycles::no_targets            0                       # number of cycles access was blocked
system.cpu.icache.blocked::no_mshrs                 0                       # number of cycles access was blocked
system.cpu.icache.blocked::no_targets               0                       # number of cycles access was blocked
system.cpu.icache.avg_blocked_cycles::no_mshrs          nan                       # average number of cycles each access was blocked
system.cpu.icache.avg_blocked_cycles::no_targets          nan                       # average number of cycles each access was blocked
system.cpu.icache.fast_writes                       0                       # number of fast writes performed
system.cpu.icache.cache_copies                      0                       # number of cache copies performed
system.cpu.icache.ReadReq_mshr_hits::cpu.inst            1                       # number of ReadReq MSHR hits
system.cpu.icache.ReadReq_mshr_hits::total            1                       # number of ReadReq MSHR hits
system.cpu.icache.demand_mshr_hits::cpu.inst            1                       # number of demand (read+write) MSHR hits
system.cpu.icache.demand_mshr_hits::total            1                       # number of demand (read+write) MSHR hits
system.cpu.icache.overall_mshr_hits::cpu.inst            1                       # number of overall MSHR hits
system.cpu.icache.overall_mshr_hits::total            1                       # number of overall MSHR hits
system.cpu.icache.ReadReq_mshr_misses::cpu.inst           35                       # number of ReadReq MSHR misses
system.cpu.icache.ReadReq_mshr_misses::total           35                       # number of ReadReq MSHR misses
system.cpu.icache.demand_mshr_misses::cpu.inst           35                       # number of demand (read+write) MSHR misses
system.cpu.icache.demand_mshr_misses::total           35                       # number of demand (read+write) MSHR misses
system.cpu.icache.overall_mshr_misses::cpu.inst           35                       # number of overall MSHR misses
system.cpu.icache.overall_mshr_misses::total           35                       # number of overall MSHR misses
system.cpu.icache.ReadReq_mshr_miss_latency::cpu.inst      1897000                       # number of ReadReq MSHR miss cycles
system.cpu.icache.ReadReq_mshr_miss_latency::total      1897000                       # number of ReadReq MSHR miss cycles
system.cpu.icache.demand_mshr_miss_latency::cpu.inst      1897000                       # number of demand (read+write) MSHR miss cycles
system.cpu.icache.demand_mshr_miss_latency::total      1897000                       # number of demand (read+write) MSHR miss cycles
system.cpu.icache.overall_mshr_miss_latency::cpu.inst      1897000                       # number of overall MSHR miss cycles
system.cpu.icache.overall_mshr_miss_latency::total      1897000                       # number of overall MSHR miss cycles
system.cpu.icache.ReadReq_mshr_miss_rate::cpu.inst     0.000004                       # mshr miss rate for ReadReq accesses
system.cpu.icache.ReadReq_mshr_miss_rate::total     0.000004                       # mshr miss rate for ReadReq accesses
system.cpu.icache.demand_mshr_miss_rate::cpu.inst     0.000004                       # mshr miss rate for demand accesses
system.cpu.icache.demand_mshr_miss_rate::total     0.000004                       # mshr miss rate for demand accesses
system.cpu.icache.overall_mshr_miss_rate::cpu.inst     0.000004                       # mshr miss rate for overall accesses
system.cpu.icache.overall_mshr_miss_rate::total     0.000004                       # mshr miss rate for overall accesses
system.cpu.icache.ReadReq_avg_mshr_miss_latency::cpu.inst        54200                       # average ReadReq mshr miss latency
system.cpu.icache.ReadReq_avg_mshr_miss_latency::total        54200                       # average ReadReq mshr miss latency
system.cpu.icache.demand_avg_mshr_miss_latency::cpu.inst        54200                       # average overall mshr miss latency
system.cpu.icache.demand_avg_mshr_miss_latency::total        54200                       # average overall mshr miss latency
system.cpu.icache.overall_avg_mshr_miss_latency::cpu.inst        54200                       # average overall mshr miss latency
system.cpu.icache.overall_avg_mshr_miss_latency::total        54200                       # average overall mshr miss latency
system.cpu.icache.no_allocate_misses                0                       # Number of misses that were no-allocate
system.cpu.dcache.replacements                1557564                       # number of replacements
system.cpu.dcache.tagsinuse                511.617990                       # Cycle average of tags in use
system.cpu.dcache.total_refs                 29508717                       # Total number of references to valid blocks.
system.cpu.dcache.sampled_refs                1558076                       # Sample count of references to valid blocks.
system.cpu.dcache.avg_refs                  18.939203                       # Average number of references to valid blocks.
system.cpu.dcache.warmup_cycle           15514076705000                       # Cycle when the warmup percentage was hit.
system.cpu.dcache.occ_blocks::cpu.data     511.617990                       # Average occupied blocks per requestor
system.cpu.dcache.occ_percent::cpu.data      0.999254                       # Average percentage of cache occupancy
system.cpu.dcache.occ_percent::total         0.999254                       # Average percentage of cache occupancy
system.cpu.dcache.ReadReq_hits::cpu.data     23974654                       # number of ReadReq hits
system.cpu.dcache.ReadReq_hits::total        23974654                       # number of ReadReq hits
system.cpu.dcache.WriteReq_hits::cpu.data      5534063                       # number of WriteReq hits
system.cpu.dcache.WriteReq_hits::total        5534063                       # number of WriteReq hits
system.cpu.dcache.demand_hits::cpu.data      29508717                       # number of demand (read+write) hits
system.cpu.dcache.demand_hits::total         29508717                       # number of demand (read+write) hits
system.cpu.dcache.overall_hits::cpu.data     29508717                       # number of overall hits
system.cpu.dcache.overall_hits::total        29508717                       # number of overall hits
system.cpu.dcache.ReadReq_misses::cpu.data      2192292                       # number of ReadReq misses
system.cpu.dcache.ReadReq_misses::total       2192292                       # number of ReadReq misses
system.cpu.dcache.WriteReq_misses::cpu.data       238074                       # number of WriteReq misses
system.cpu.dcache.WriteReq_misses::total       238074                       # number of WriteReq misses
system.cpu.dcache.demand_misses::cpu.data      2430366                       # number of demand (read+write) misses
system.cpu.dcache.demand_misses::total        2430366                       # number of demand (read+write) misses
system.cpu.dcache.overall_misses::cpu.data      2430366                       # number of overall misses
system.cpu.dcache.overall_misses::total       2430366                       # number of overall misses
system.cpu.dcache.ReadReq_miss_latency::cpu.data  99104380000                       # number of ReadReq miss cycles
system.cpu.dcache.ReadReq_miss_latency::total  99104380000                       # number of ReadReq miss cycles
system.cpu.dcache.WriteReq_miss_latency::cpu.data  13171788000                       # number of WriteReq miss cycles
system.cpu.dcache.WriteReq_miss_latency::total  13171788000                       # number of WriteReq miss cycles
system.cpu.dcache.demand_miss_latency::cpu.data 112276168000                       # number of demand (read+write) miss cycles
system.cpu.dcache.demand_miss_latency::total 112276168000                       # number of demand (read+write) miss cycles
system.cpu.dcache.overall_miss_latency::cpu.data 112276168000                       # number of overall miss cycles
system.cpu.dcache.overall_miss_latency::total 112276168000                       # number of overall miss cycles
system.cpu.dcache.ReadReq_accesses::cpu.data     26166946                       # number of ReadReq accesses(hits+misses)
system.cpu.dcache.ReadReq_accesses::total     26166946                       # number of ReadReq accesses(hits+misses)
system.cpu.dcache.WriteReq_accesses::cpu.data      5772137                       # number of WriteReq accesses(hits+misses)
system.cpu.dcache.WriteReq_accesses::total      5772137                       # number of WriteReq accesses(hits+misses)
system.cpu.dcache.demand_accesses::cpu.data     31939083                       # number of demand (read+write) accesses
system.cpu.dcache.demand_accesses::total     31939083                       # number of demand (read+write) accesses
system.cpu.dcache.overall_accesses::cpu.data     31939083                       # number of overall (read+write) accesses
system.cpu.dcache.overall_accesses::total     31939083                       # number of overall (read+write) accesses
system.cpu.dcache.ReadReq_miss_rate::cpu.data     0.083781                       # miss rate for ReadReq accesses
system.cpu.dcache.ReadReq_miss_rate::total     0.083781                       # miss rate for ReadReq accesses
system.cpu.dcache.WriteReq_miss_rate::cpu.data     0.041245                       # miss rate for WriteReq accesses
system.cpu.dcache.WriteReq_miss_rate::total     0.041245                       # miss rate for WriteReq accesses
system.cpu.dcache.demand_miss_rate::cpu.data     0.076094                       # miss rate for demand accesses
system.cpu.dcache.demand_miss_rate::total     0.076094                       # miss rate for demand accesses
system.cpu.dcache.overall_miss_rate::cpu.data     0.076094                       # miss rate for overall accesses
system.cpu.dcache.overall_miss_rate::total     0.076094                       # miss rate for overall accesses
system.cpu.dcache.ReadReq_avg_miss_latency::cpu.data 45205.830245                       # average ReadReq miss latency
system.cpu.dcache.ReadReq_avg_miss_latency::total 45205.830245                       # average ReadReq miss latency
system.cpu.dcache.WriteReq_avg_miss_latency::cpu.data 55326.444719                       # average WriteReq miss latency
system.cpu.dcache.WriteReq_avg_miss_latency::total 55326.444719                       # average WriteReq miss latency
system.cpu.dcache.demand_avg_miss_latency::cpu.data 46197.226261                       # average overall miss latency
system.cpu.dcache.demand_avg_miss_latency::total 46197.226261                       # average overall miss latency
system.cpu.dcache.overall_avg_miss_latency::cpu.data 46197.226261                       # average overall miss latency
system.cpu.dcache.overall_avg_miss_latency::total 46197.226261                       # average overall miss latency
system.cpu.dcache.blocked_cycles::no_mshrs            0                       # number of cycles access was blocked
system.cpu.dcache.blocked_cycles::no_targets            0                       # number of cycles access was blocked
system.cpu.dcache.blocked::no_mshrs                 0                       # number of cycles access was blocked
system.cpu.dcache.blocked::no_targets               0                       # number of cycles access was blocked
system.cpu.dcache.avg_blocked_cycles::no_mshrs          nan                       # average number of cycles each access was blocked
system.cpu.dcache.avg_blocked_cycles::no_targets          nan                       # average number of cycles each access was blocked
system.cpu.dcache.fast_writes                       0                       # number of fast writes performed
system.cpu.dcache.cache_copies                      0                       # number of cache copies performed
system.cpu.dcache.writebacks::writebacks       542391                       # number of writebacks
system.cpu.dcache.writebacks::total            542391                       # number of writebacks
system.cpu.dcache.ReadReq_mshr_hits::cpu.data       872290                       # number of ReadReq MSHR hits
system.cpu.dcache.ReadReq_mshr_hits::total       872290                       # number of ReadReq MSHR hits
system.cpu.dcache.demand_mshr_hits::cpu.data       872290                       # number of demand (read+write) MSHR hits
system.cpu.dcache.demand_mshr_hits::total       872290                       # number of demand (read+write) MSHR hits
system.cpu.dcache.overall_mshr_hits::cpu.data       872290                       # number of overall MSHR hits
system.cpu.dcache.overall_mshr_hits::total       872290                       # number of overall MSHR hits
system.cpu.dcache.ReadReq_mshr_misses::cpu.data      1320002                       # number of ReadReq MSHR misses
system.cpu.dcache.ReadReq_mshr_misses::total      1320002                       # number of ReadReq MSHR misses
system.cpu.dcache.WriteReq_mshr_misses::cpu.data       238074                       # number of WriteReq MSHR misses
system.cpu.dcache.WriteReq_mshr_misses::total       238074                       # number of WriteReq MSHR misses
system.cpu.dcache.demand_mshr_misses::cpu.data      1558076                       # number of demand (read+write) MSHR misses
system.cpu.dcache.demand_mshr_misses::total      1558076                       # number of demand (read+write) MSHR misses
system.cpu.dcache.overall_mshr_misses::cpu.data      1558076                       # number of overall MSHR misses
system.cpu.dcache.overall_mshr_misses::total      1558076                       # number of overall MSHR misses
system.cpu.dcache.ReadReq_mshr_miss_latency::cpu.data  72154355000                       # number of ReadReq MSHR miss cycles
system.cpu.dcache.ReadReq_mshr_miss_latency::total  72154355000                       # number of ReadReq MSHR miss cycles
system.cpu.dcache.WriteReq_mshr_miss_latency::cpu.data  12695640000                       # number of WriteReq MSHR miss cycles
system.cpu.dcache.WriteReq_mshr_miss_latency::total  12695640000                       # number of WriteReq MSHR miss cycles
system.cpu.dcache.demand_mshr_miss_latency::cpu.data  84849995000                       # number of demand (read+write) MSHR miss cycles
system.cpu.dcache.demand_mshr_miss_latency::total  84849995000                       # number of demand (read+write) MSHR miss cycles
system.cpu.dcache.overall_mshr_miss_latency::cpu.data  84849995000                       # number of overall MSHR miss cycles
system.cpu.dcache.overall_mshr_miss_latency::total  84849995000                       # number of overall MSHR miss cycles
system.cpu.dcache.ReadReq_mshr_miss_rate::cpu.data     0.050445                       # mshr miss rate for ReadReq accesses
system.cpu.dcache.ReadReq_mshr_miss_rate::total     0.050445                       # mshr miss rate for ReadReq accesses
system.cpu.dcache.WriteReq_mshr_miss_rate::cpu.data     0.041245                       # mshr miss rate for WriteReq accesses
system.cpu.dcache.WriteReq_mshr_miss_rate::total     0.041245                       # mshr miss rate for WriteReq accesses
system.cpu.dcache.demand_mshr_miss_rate::cpu.data     0.048783                       # mshr miss rate for demand accesses
system.cpu.dcache.demand_mshr_miss_rate::total     0.048783                       # mshr miss rate for demand accesses
system.cpu.dcache.overall_mshr_miss_rate::cpu.data     0.048783                       # mshr miss rate for overall accesses
system.cpu.dcache.overall_mshr_miss_rate::total     0.048783                       # mshr miss rate for overall accesses
system.cpu.dcache.ReadReq_avg_mshr_miss_latency::cpu.data 54662.307330                       # average ReadReq mshr miss latency
system.cpu.dcache.ReadReq_avg_mshr_miss_latency::total 54662.307330                       # average ReadReq mshr miss latency
system.cpu.dcache.WriteReq_avg_mshr_miss_latency::cpu.data 53326.444719                       # average WriteReq mshr miss latency
system.cpu.dcache.WriteReq_avg_mshr_miss_latency::total 53326.444719                       # average WriteReq mshr miss latency
system.cpu.dcache.demand_avg_mshr_miss_latency::cpu.data 54458.187534                       # average overall mshr miss latency
system.cpu.dcache.demand_avg_mshr_miss_latency::total 54458.187534                       # average overall mshr miss latency
system.cpu.dcache.overall_avg_mshr_miss_latency::cpu.data 54458.187534                       # average overall mshr miss latency
system.cpu.dcache.overall_avg_mshr_miss_latency::total 54458.187534                       # average overall mshr miss latency
system.cpu.dcache.no_allocate_misses                0                       # Number of misses that were no-allocate

---------- End Simulation Statistics   ----------
