
---------- Begin Simulation Statistics ----------
sim_seconds                                  0.227403                       # Number of seconds simulated
sim_ticks                                227402621500                       # Number of ticks simulated
final_tick                               15740898210500                       # Number of ticks from beginning of simulation (restored from checkpoints and never reset)
sim_freq                                 1000000000000                       # Frequency of simulated ticks
host_inst_rate                                  43581                       # Simulator instruction rate (inst/s)
host_op_rate                                    56868                       # Simulator op (including micro ops) rate (op/s)
host_tick_rate                               99104630                       # Simulator tick rate (ticks/s)
host_mem_usage                                2432484                       # Number of bytes of host memory used
host_seconds                                  2294.57                       # Real time elapsed on the host
sim_insts                                   100000002                       # Number of instructions simulated
sim_ops                                     130488358                       # Number of ops (including micro ops) simulated
system.physmem.bytes_read::cpu.inst              3008                       # Number of bytes read from this memory
system.physmem.bytes_read::cpu.data          99692352                       # Number of bytes read from this memory
system.physmem.bytes_read::total             99695360                       # Number of bytes read from this memory
system.physmem.bytes_inst_read::cpu.inst         3008                       # Number of instructions bytes read from this memory
system.physmem.bytes_inst_read::total            3008                       # Number of instructions bytes read from this memory
system.physmem.bytes_written::writebacks     34566016                       # Number of bytes written to this memory
system.physmem.bytes_written::total          34566016                       # Number of bytes written to this memory
system.physmem.num_reads::cpu.inst                 47                       # Number of read requests responded to by this memory
system.physmem.num_reads::cpu.data            1557693                       # Number of read requests responded to by this memory
system.physmem.num_reads::total               1557740                       # Number of read requests responded to by this memory
system.physmem.num_writes::writebacks          540094                       # Number of write requests responded to by this memory
system.physmem.num_writes::total               540094                       # Number of write requests responded to by this memory
system.physmem.bw_read::cpu.inst                13228                       # Total read bandwidth from this memory (bytes/s)
system.physmem.bw_read::cpu.data            438395790                       # Total read bandwidth from this memory (bytes/s)
system.physmem.bw_read::total               438409018                       # Total read bandwidth from this memory (bytes/s)
system.physmem.bw_inst_read::cpu.inst           13228                       # Instruction read bandwidth from this memory (bytes/s)
system.physmem.bw_inst_read::total              13228                       # Instruction read bandwidth from this memory (bytes/s)
system.physmem.bw_write::writebacks         152003595                       # Write bandwidth from this memory (bytes/s)
system.physmem.bw_write::total              152003595                       # Write bandwidth from this memory (bytes/s)
system.physmem.bw_total::writebacks         152003595                       # Total bandwidth to/from this memory (bytes/s)
system.physmem.bw_total::cpu.inst               13228                       # Total bandwidth to/from this memory (bytes/s)
system.physmem.bw_total::cpu.data           438395790                       # Total bandwidth to/from this memory (bytes/s)
system.physmem.bw_total::total              590412613                       # Total bandwidth to/from this memory (bytes/s)
system.l2.replacements                        1553645                       # number of replacements
system.l2.tagsinuse                       4013.675503                       # Cycle average of tags in use
system.l2.total_refs                           304703                       # Total number of references to valid blocks.
system.l2.sampled_refs                        1557741                       # Sample count of references to valid blocks.
system.l2.avg_refs                           0.195606                       # Average number of references to valid blocks.
system.l2.warmup_cycle                   15718882258000                       # Cycle when the warmup percentage was hit.
system.l2.occ_blocks::writebacks          2805.961208                       # Average occupied blocks per requestor
system.l2.occ_blocks::cpu.inst               0.411140                       # Average occupied blocks per requestor
system.l2.occ_blocks::cpu.data            1207.303154                       # Average occupied blocks per requestor
system.l2.occ_percent::writebacks            0.685049                       # Average percentage of cache occupancy
system.l2.occ_percent::cpu.inst              0.000100                       # Average percentage of cache occupancy
system.l2.occ_percent::cpu.data              0.294752                       # Average percentage of cache occupancy
system.l2.occ_percent::total                 0.979901                       # Average percentage of cache occupancy
system.l2.ReadReq_hits::cpu.data                  387                       # number of ReadReq hits
system.l2.ReadReq_hits::total                     387                       # number of ReadReq hits
system.l2.Writeback_hits::writebacks           542391                       # number of Writeback hits
system.l2.Writeback_hits::total                542391                       # number of Writeback hits
system.l2.demand_hits::cpu.data                   387                       # number of demand (read+write) hits
system.l2.demand_hits::total                      387                       # number of demand (read+write) hits
system.l2.overall_hits::cpu.data                  387                       # number of overall hits
system.l2.overall_hits::total                     387                       # number of overall hits
system.l2.ReadReq_misses::cpu.inst                 47                       # number of ReadReq misses
system.l2.ReadReq_misses::cpu.data            1319619                       # number of ReadReq misses
system.l2.ReadReq_misses::total               1319666                       # number of ReadReq misses
system.l2.ReadExReq_misses::cpu.data           238074                       # number of ReadExReq misses
system.l2.ReadExReq_misses::total              238074                       # number of ReadExReq misses
system.l2.demand_misses::cpu.inst                  47                       # number of demand (read+write) misses
system.l2.demand_misses::cpu.data             1557693                       # number of demand (read+write) misses
system.l2.demand_misses::total                1557740                       # number of demand (read+write) misses
system.l2.overall_misses::cpu.inst                 47                       # number of overall misses
system.l2.overall_misses::cpu.data            1557693                       # number of overall misses
system.l2.overall_misses::total               1557740                       # number of overall misses
system.l2.ReadReq_miss_latency::cpu.inst      2538000                       # number of ReadReq miss cycles
system.l2.ReadReq_miss_latency::cpu.data  71003356500                       # number of ReadReq miss cycles
system.l2.ReadReq_miss_latency::total     71005894500                       # number of ReadReq miss cycles
system.l2.ReadExReq_miss_latency::cpu.data  12509184000                       # number of ReadExReq miss cycles
system.l2.ReadExReq_miss_latency::total   12509184000                       # number of ReadExReq miss cycles
system.l2.demand_miss_latency::cpu.inst       2538000                       # number of demand (read+write) miss cycles
system.l2.demand_miss_latency::cpu.data   83512540500                       # number of demand (read+write) miss cycles
system.l2.demand_miss_latency::total      83515078500                       # number of demand (read+write) miss cycles
system.l2.overall_miss_latency::cpu.inst      2538000                       # number of overall miss cycles
system.l2.overall_miss_latency::cpu.data  83512540500                       # number of overall miss cycles
system.l2.overall_miss_latency::total     83515078500                       # number of overall miss cycles
system.l2.ReadReq_accesses::cpu.inst               47                       # number of ReadReq accesses(hits+misses)
system.l2.ReadReq_accesses::cpu.data          1320006                       # number of ReadReq accesses(hits+misses)
system.l2.ReadReq_accesses::total             1320053                       # number of ReadReq accesses(hits+misses)
system.l2.Writeback_accesses::writebacks       542391                       # number of Writeback accesses(hits+misses)
system.l2.Writeback_accesses::total            542391                       # number of Writeback accesses(hits+misses)
system.l2.ReadExReq_accesses::cpu.data         238074                       # number of ReadExReq accesses(hits+misses)
system.l2.ReadExReq_accesses::total            238074                       # number of ReadExReq accesses(hits+misses)
system.l2.demand_accesses::cpu.inst                47                       # number of demand (read+write) accesses
system.l2.demand_accesses::cpu.data           1558080                       # number of demand (read+write) accesses
system.l2.demand_accesses::total              1558127                       # number of demand (read+write) accesses
system.l2.overall_accesses::cpu.inst               47                       # number of overall (read+write) accesses
system.l2.overall_accesses::cpu.data          1558080                       # number of overall (read+write) accesses
system.l2.overall_accesses::total             1558127                       # number of overall (read+write) accesses
system.l2.ReadReq_miss_rate::cpu.inst               1                       # miss rate for ReadReq accesses
system.l2.ReadReq_miss_rate::cpu.data        0.999707                       # miss rate for ReadReq accesses
system.l2.ReadReq_miss_rate::total           0.999707                       # miss rate for ReadReq accesses
system.l2.ReadExReq_miss_rate::cpu.data             1                       # miss rate for ReadExReq accesses
system.l2.ReadExReq_miss_rate::total                1                       # miss rate for ReadExReq accesses
system.l2.demand_miss_rate::cpu.inst                1                       # miss rate for demand accesses
system.l2.demand_miss_rate::cpu.data         0.999752                       # miss rate for demand accesses
system.l2.demand_miss_rate::total            0.999752                       # miss rate for demand accesses
system.l2.overall_miss_rate::cpu.inst               1                       # miss rate for overall accesses
system.l2.overall_miss_rate::cpu.data        0.999752                       # miss rate for overall accesses
system.l2.overall_miss_rate::total           0.999752                       # miss rate for overall accesses
system.l2.ReadReq_avg_miss_latency::cpu.inst        54000                       # average ReadReq miss latency
system.l2.ReadReq_avg_miss_latency::cpu.data 53805.951945                       # average ReadReq miss latency
system.l2.ReadReq_avg_miss_latency::total 53805.958856                       # average ReadReq miss latency
system.l2.ReadExReq_avg_miss_latency::cpu.data 52543.259659                       # average ReadExReq miss latency
system.l2.ReadExReq_avg_miss_latency::total 52543.259659                       # average ReadExReq miss latency
system.l2.demand_avg_miss_latency::cpu.inst        54000                       # average overall miss latency
system.l2.demand_avg_miss_latency::cpu.data 53612.965135                       # average overall miss latency
system.l2.demand_avg_miss_latency::total 53612.976813                       # average overall miss latency
system.l2.overall_avg_miss_latency::cpu.inst        54000                       # average overall miss latency
system.l2.overall_avg_miss_latency::cpu.data 53612.965135                       # average overall miss latency
system.l2.overall_avg_miss_latency::total 53612.976813                       # average overall miss latency
system.l2.blocked_cycles::no_mshrs                  0                       # number of cycles access was blocked
system.l2.blocked_cycles::no_targets                0                       # number of cycles access was blocked
system.l2.blocked::no_mshrs                         0                       # number of cycles access was blocked
system.l2.blocked::no_targets                       0                       # number of cycles access was blocked
system.l2.avg_blocked_cycles::no_mshrs            nan                       # average number of cycles each access was blocked
system.l2.avg_blocked_cycles::no_targets          nan                       # average number of cycles each access was blocked
system.l2.fast_writes                               0                       # number of fast writes performed
system.l2.cache_copies                              0                       # number of cache copies performed
system.l2.writebacks::writebacks               540094                       # number of writebacks
system.l2.writebacks::total                    540094                       # number of writebacks
system.l2.ReadReq_mshr_misses::cpu.inst            47                       # number of ReadReq MSHR misses
system.l2.ReadReq_mshr_misses::cpu.data       1319619                       # number of ReadReq MSHR misses
system.l2.ReadReq_mshr_misses::total          1319666                       # number of ReadReq MSHR misses
system.l2.ReadExReq_mshr_misses::cpu.data       238074                       # number of ReadExReq MSHR misses
system.l2.ReadExReq_mshr_misses::total         238074                       # number of ReadExReq MSHR misses
system.l2.demand_mshr_misses::cpu.inst             47                       # number of demand (read+write) MSHR misses
system.l2.demand_mshr_misses::cpu.data        1557693                       # number of demand (read+write) MSHR misses
system.l2.demand_mshr_misses::total           1557740                       # number of demand (read+write) MSHR misses
system.l2.overall_mshr_misses::cpu.inst            47                       # number of overall MSHR misses
system.l2.overall_mshr_misses::cpu.data       1557693                       # number of overall MSHR misses
system.l2.overall_mshr_misses::total          1557740                       # number of overall MSHR misses
system.l2.ReadReq_mshr_miss_latency::cpu.inst      1963500                       # number of ReadReq MSHR miss cycles
system.l2.ReadReq_mshr_miss_latency::cpu.data  54841425000                       # number of ReadReq MSHR miss cycles
system.l2.ReadReq_mshr_miss_latency::total  54843388500                       # number of ReadReq MSHR miss cycles
system.l2.ReadExReq_mshr_miss_latency::cpu.data   9607313500                       # number of ReadExReq MSHR miss cycles
system.l2.ReadExReq_mshr_miss_latency::total   9607313500                       # number of ReadExReq MSHR miss cycles
system.l2.demand_mshr_miss_latency::cpu.inst      1963500                       # number of demand (read+write) MSHR miss cycles
system.l2.demand_mshr_miss_latency::cpu.data  64448738500                       # number of demand (read+write) MSHR miss cycles
system.l2.demand_mshr_miss_latency::total  64450702000                       # number of demand (read+write) MSHR miss cycles
system.l2.overall_mshr_miss_latency::cpu.inst      1963500                       # number of overall MSHR miss cycles
system.l2.overall_mshr_miss_latency::cpu.data  64448738500                       # number of overall MSHR miss cycles
system.l2.overall_mshr_miss_latency::total  64450702000                       # number of overall MSHR miss cycles
system.l2.ReadReq_mshr_miss_rate::cpu.inst            1                       # mshr miss rate for ReadReq accesses
system.l2.ReadReq_mshr_miss_rate::cpu.data     0.999707                       # mshr miss rate for ReadReq accesses
system.l2.ReadReq_mshr_miss_rate::total      0.999707                       # mshr miss rate for ReadReq accesses
system.l2.ReadExReq_mshr_miss_rate::cpu.data            1                       # mshr miss rate for ReadExReq accesses
system.l2.ReadExReq_mshr_miss_rate::total            1                       # mshr miss rate for ReadExReq accesses
system.l2.demand_mshr_miss_rate::cpu.inst            1                       # mshr miss rate for demand accesses
system.l2.demand_mshr_miss_rate::cpu.data     0.999752                       # mshr miss rate for demand accesses
system.l2.demand_mshr_miss_rate::total       0.999752                       # mshr miss rate for demand accesses
system.l2.overall_mshr_miss_rate::cpu.inst            1                       # mshr miss rate for overall accesses
system.l2.overall_mshr_miss_rate::cpu.data     0.999752                       # mshr miss rate for overall accesses
system.l2.overall_mshr_miss_rate::total      0.999752                       # mshr miss rate for overall accesses
system.l2.ReadReq_avg_mshr_miss_latency::cpu.inst 41776.595745                       # average ReadReq mshr miss latency
system.l2.ReadReq_avg_mshr_miss_latency::cpu.data 41558.529394                       # average ReadReq mshr miss latency
system.l2.ReadReq_avg_mshr_miss_latency::total 41558.537160                       # average ReadReq mshr miss latency
system.l2.ReadExReq_avg_mshr_miss_latency::cpu.data 40354.316305                       # average ReadExReq mshr miss latency
system.l2.ReadExReq_avg_mshr_miss_latency::total 40354.316305                       # average ReadExReq mshr miss latency
system.l2.demand_avg_mshr_miss_latency::cpu.inst 41776.595745                       # average overall mshr miss latency
system.l2.demand_avg_mshr_miss_latency::cpu.data 41374.480401                       # average overall mshr miss latency
system.l2.demand_avg_mshr_miss_latency::total 41374.492534                       # average overall mshr miss latency
system.l2.overall_avg_mshr_miss_latency::cpu.inst 41776.595745                       # average overall mshr miss latency
system.l2.overall_avg_mshr_miss_latency::cpu.data 41374.480401                       # average overall mshr miss latency
system.l2.overall_avg_mshr_miss_latency::total 41374.492534                       # average overall mshr miss latency
system.l2.no_allocate_misses                        0                       # Number of misses that were no-allocate
system.cpu.branchPred.lookups                 3571122                       # Number of BP lookups
system.cpu.branchPred.condPredicted           3571122                       # Number of conditional branches predicted
system.cpu.branchPred.condIncorrect               137                       # Number of conditional branches incorrect
system.cpu.branchPred.BTBLookups              2680179                       # Number of BTB lookups
system.cpu.branchPred.BTBHits                 2680005                       # Number of BTB hits
system.cpu.branchPred.BTBCorrect                    0                       # Number of correct BTB predictions (this stat may not work properly.
system.cpu.branchPred.BTBHitPct             99.993508                       # BTB Hit Percentage
system.cpu.branchPred.usedRAS                       0                       # Number of times the RAS was used to get a target.
system.cpu.branchPred.RASInCorrect                  0                       # Number of incorrect RAS predictions.
system.cpu.workload.num_syscalls                    0                       # Number of system calls
system.cpu.numCycles                        454853608                       # number of cpu cycles simulated
system.cpu.numWorkItemsStarted                      0                       # number of work items this cpu started
system.cpu.numWorkItemsCompleted                    0                       # number of work items this cpu completed
system.cpu.fetch.icacheStallCycles            8942967                       # Number of cycles fetch is stalled on an Icache miss
system.cpu.fetch.Insts                      100004816                       # Number of instructions fetch has processed
system.cpu.fetch.Branches                     3571122                       # Number of branches that fetch encountered
system.cpu.fetch.predictedBranches            2680005                       # Number of branches that fetch has predicted taken
system.cpu.fetch.Cycles                      37659368                       # Number of cycles fetch has run and was not squashing or blocked
system.cpu.fetch.SquashCycles                    1761                       # Number of cycles fetch has spent squashing
system.cpu.fetch.BlockedCycles              407715281                       # Number of cycles fetch has spent blocked
system.cpu.fetch.CacheLines                   8940207                       # Number of cache lines fetched
system.cpu.fetch.IcacheSquashes                    30                       # Number of outstanding Icache misses that were squashed
system.cpu.fetch.rateDist::samples          454319217                       # Number of instructions fetched each cycle (Total)
system.cpu.fetch.rateDist::mean              0.287233                       # Number of instructions fetched each cycle (Total)
system.cpu.fetch.rateDist::stdev             1.009449                       # Number of instructions fetched each cycle (Total)
system.cpu.fetch.rateDist::underflows               0      0.00%      0.00% # Number of instructions fetched each cycle (Total)
system.cpu.fetch.rateDist::0                418949078     92.21%     92.21% # Number of instructions fetched each cycle (Total)
system.cpu.fetch.rateDist::1                   987765      0.22%     92.43% # Number of instructions fetched each cycle (Total)
system.cpu.fetch.rateDist::2                  2736938      0.60%     93.03% # Number of instructions fetched each cycle (Total)
system.cpu.fetch.rateDist::3                  2547721      0.56%     93.60% # Number of instructions fetched each cycle (Total)
system.cpu.fetch.rateDist::4                 29097715      6.40%    100.00% # Number of instructions fetched each cycle (Total)
system.cpu.fetch.rateDist::overflows                0      0.00%    100.00% # Number of instructions fetched each cycle (Total)
system.cpu.fetch.rateDist::min_value                0                       # Number of instructions fetched each cycle (Total)
system.cpu.fetch.rateDist::max_value                4                       # Number of instructions fetched each cycle (Total)
system.cpu.fetch.rateDist::total            454319217                       # Number of instructions fetched each cycle (Total)
system.cpu.fetch.branchRate                  0.007851                       # Number of branch fetches per cycle
system.cpu.fetch.rate                        0.219862                       # Number of inst fetches per cycle
system.cpu.decode.IdleCycles                 30364665                       # Number of cycles decode is idle
system.cpu.decode.BlockedCycles             388582914                       # Number of cycles decode is blocked
system.cpu.decode.RunCycles                  21938573                       # Number of cycles decode is running
system.cpu.decode.UnblockCycles              13431431                       # Number of cycles decode is unblocking
system.cpu.decode.SquashCycles                   1601                       # Number of cycles decode is squashing
system.cpu.decode.DecodedInsts              130495299                       # Number of instructions handled by decode
system.cpu.rename.SquashCycles                   1601                       # Number of cycles rename is squashing
system.cpu.rename.IdleCycles                 45360269                       # Number of cycles rename is idle
system.cpu.rename.BlockCycles               330379106                       # Number of cycles rename is blocking
system.cpu.rename.serializeStallCycles              0                       # count of cycles rename stalled for serializing inst
system.cpu.rename.RunCycles                  23507429                       # Number of cycles rename is running
system.cpu.rename.UnblockCycles              55070779                       # Number of cycles rename is unblocking
system.cpu.rename.RenamedInsts              130494910                       # Number of instructions processed by rename
system.cpu.rename.ROBFullEvents               4246202                       # Number of times rename has blocked due to ROB full
system.cpu.rename.IQFullEvents               43051979                       # Number of times rename has blocked due to IQ full
system.cpu.rename.LSQFullEvents               1346513                       # Number of times rename has blocked due to LSQ full
system.cpu.rename.RenamedOperands           148165169                       # Number of destination operands rename has renamed
system.cpu.rename.RenameLookups             329501959                       # Number of register rename lookups that rename has made
system.cpu.rename.int_rename_lookups         72559371                       # Number of integer rename lookups
system.cpu.rename.fp_rename_lookups         256942588                       # Number of floating rename lookups
system.cpu.rename.CommittedMaps             148157086                       # Number of HB maps that are committed
system.cpu.rename.UndoneMaps                     7950                       # Number of HB maps that are undone due to squashing
system.cpu.rename.serializingInsts                  0                       # count of serializing insts renamed
system.cpu.rename.tempSerializingInsts              0                       # count of temporary serializing insts renamed
system.cpu.rename.skidInsts                  76668333                       # count of insts added to the skid buffer
system.cpu.memDep0.insertedLoads             26167998                       # Number of loads inserted to the mem dependence unit.
system.cpu.memDep0.insertedStores             5772502                       # Number of stores inserted to the mem dependence unit.
system.cpu.memDep0.conflictingLoads            913839                       # Number of conflicting loads.
system.cpu.memDep0.conflictingStores           812277                       # Number of conflicting stores.
system.cpu.iq.iqInstsAdded                  130494437                       # Number of instructions added to the IQ (excludes non-spec)
system.cpu.iq.iqInstsIssued                 130489386                       # Number of instructions issued
system.cpu.iq.iqSquashedInstsIssued              1611                       # Number of squashed instructions issued
system.cpu.iq.iqSquashedInstsExamined            5978                       # Number of squashed instructions iterated over during squash; mainly for profiling
system.cpu.iq.iqSquashedOperandsExamined        12311                       # Number of squashed operands that are examined and possibly removed from graph
system.cpu.iq.issued_per_cycle::samples     454319217                       # Number of insts issued each cycle
system.cpu.iq.issued_per_cycle::mean         0.287220                       # Number of insts issued each cycle
system.cpu.iq.issued_per_cycle::stdev        0.530523                       # Number of insts issued each cycle
system.cpu.iq.issued_per_cycle::underflows            0      0.00%      0.00% # Number of insts issued each cycle
system.cpu.iq.issued_per_cycle::0           339008430     74.62%     74.62% # Number of insts issued each cycle
system.cpu.iq.issued_per_cycle::1           102155337     22.49%     97.10% # Number of insts issued each cycle
system.cpu.iq.issued_per_cycle::2            11360652      2.50%     99.60% # Number of insts issued each cycle
system.cpu.iq.issued_per_cycle::3             1566447      0.34%     99.95% # Number of insts issued each cycle
system.cpu.iq.issued_per_cycle::4              228351      0.05%    100.00% # Number of insts issued each cycle
system.cpu.iq.issued_per_cycle::overflows            0      0.00%    100.00% # Number of insts issued each cycle
system.cpu.iq.issued_per_cycle::min_value            0                       # Number of insts issued each cycle
system.cpu.iq.issued_per_cycle::max_value            4                       # Number of insts issued each cycle
system.cpu.iq.issued_per_cycle::total       454319217                       # Number of insts issued each cycle
system.cpu.iq.fu_full::No_OpClass                   0      0.00%      0.00% # attempts to use FU when none available
system.cpu.iq.fu_full::IntAlu                  269820     10.89%     10.89% # attempts to use FU when none available
system.cpu.iq.fu_full::IntMult                      0      0.00%     10.89% # attempts to use FU when none available
system.cpu.iq.fu_full::IntDiv                       0      0.00%     10.89% # attempts to use FU when none available
system.cpu.iq.fu_full::FloatAdd               2208942     89.11%    100.00% # attempts to use FU when none available
system.cpu.iq.fu_full::FloatCmp                     0      0.00%    100.00% # attempts to use FU when none available
system.cpu.iq.fu_full::FloatCvt                     0      0.00%    100.00% # attempts to use FU when none available
system.cpu.iq.fu_full::FloatMult                    0      0.00%    100.00% # attempts to use FU when none available
system.cpu.iq.fu_full::FloatDiv                     0      0.00%    100.00% # attempts to use FU when none available
system.cpu.iq.fu_full::FloatSqrt                    0      0.00%    100.00% # attempts to use FU when none available
system.cpu.iq.fu_full::SimdAdd                      0      0.00%    100.00% # attempts to use FU when none available
system.cpu.iq.fu_full::SimdAddAcc                   0      0.00%    100.00% # attempts to use FU when none available
system.cpu.iq.fu_full::SimdAlu                      0      0.00%    100.00% # attempts to use FU when none available
system.cpu.iq.fu_full::SimdCmp                      0      0.00%    100.00% # attempts to use FU when none available
system.cpu.iq.fu_full::SimdCvt                      0      0.00%    100.00% # attempts to use FU when none available
system.cpu.iq.fu_full::SimdMisc                     0      0.00%    100.00% # attempts to use FU when none available
system.cpu.iq.fu_full::SimdMult                     0      0.00%    100.00% # attempts to use FU when none available
system.cpu.iq.fu_full::SimdMultAcc                  0      0.00%    100.00% # attempts to use FU when none available
system.cpu.iq.fu_full::SimdShift                    0      0.00%    100.00% # attempts to use FU when none available
system.cpu.iq.fu_full::SimdShiftAcc                 0      0.00%    100.00% # attempts to use FU when none available
system.cpu.iq.fu_full::SimdSqrt                     0      0.00%    100.00% # attempts to use FU when none available
system.cpu.iq.fu_full::SimdFloatAdd                 0      0.00%    100.00% # attempts to use FU when none available
system.cpu.iq.fu_full::SimdFloatAlu                 0      0.00%    100.00% # attempts to use FU when none available
system.cpu.iq.fu_full::SimdFloatCmp                 0      0.00%    100.00% # attempts to use FU when none available
system.cpu.iq.fu_full::SimdFloatCvt                 0      0.00%    100.00% # attempts to use FU when none available
system.cpu.iq.fu_full::SimdFloatDiv                 0      0.00%    100.00% # attempts to use FU when none available
system.cpu.iq.fu_full::SimdFloatMisc                0      0.00%    100.00% # attempts to use FU when none available
system.cpu.iq.fu_full::SimdFloatMult                0      0.00%    100.00% # attempts to use FU when none available
system.cpu.iq.fu_full::SimdFloatMultAcc             0      0.00%    100.00% # attempts to use FU when none available
system.cpu.iq.fu_full::SimdFloatSqrt                0      0.00%    100.00% # attempts to use FU when none available
system.cpu.iq.fu_full::MemRead                      0      0.00%    100.00% # attempts to use FU when none available
system.cpu.iq.fu_full::MemWrite                     0      0.00%    100.00% # attempts to use FU when none available
system.cpu.iq.fu_full::IprAccess                    0      0.00%    100.00% # attempts to use FU when none available
system.cpu.iq.fu_full::InstPrefetch                 0      0.00%    100.00% # attempts to use FU when none available
system.cpu.iq.FU_type_0::No_OpClass                17      0.00%      0.00% # Type of FU issued
system.cpu.iq.FU_type_0::IntAlu              38238138     29.30%     29.30% # Type of FU issued
system.cpu.iq.FU_type_0::IntMult                    0      0.00%     29.30% # Type of FU issued
system.cpu.iq.FU_type_0::IntDiv                     0      0.00%     29.30% # Type of FU issued
system.cpu.iq.FU_type_0::FloatAdd            60311965     46.22%     75.52% # Type of FU issued
system.cpu.iq.FU_type_0::FloatCmp                   0      0.00%     75.52% # Type of FU issued
system.cpu.iq.FU_type_0::FloatCvt                   0      0.00%     75.52% # Type of FU issued
system.cpu.iq.FU_type_0::FloatMult                  0      0.00%     75.52% # Type of FU issued
system.cpu.iq.FU_type_0::FloatDiv                   0      0.00%     75.52% # Type of FU issued
system.cpu.iq.FU_type_0::FloatSqrt                  0      0.00%     75.52% # Type of FU issued
system.cpu.iq.FU_type_0::SimdAdd                    0      0.00%     75.52% # Type of FU issued
system.cpu.iq.FU_type_0::SimdAddAcc                 0      0.00%     75.52% # Type of FU issued
system.cpu.iq.FU_type_0::SimdAlu                    0      0.00%     75.52% # Type of FU issued
system.cpu.iq.FU_type_0::SimdCmp                    0      0.00%     75.52% # Type of FU issued
system.cpu.iq.FU_type_0::SimdCvt                    0      0.00%     75.52% # Type of FU issued
system.cpu.iq.FU_type_0::SimdMisc                   0      0.00%     75.52% # Type of FU issued
system.cpu.iq.FU_type_0::SimdMult                   0      0.00%     75.52% # Type of FU issued
system.cpu.iq.FU_type_0::SimdMultAcc                0      0.00%     75.52% # Type of FU issued
system.cpu.iq.FU_type_0::SimdShift                  0      0.00%     75.52% # Type of FU issued
system.cpu.iq.FU_type_0::SimdShiftAcc               0      0.00%     75.52% # Type of FU issued
system.cpu.iq.FU_type_0::SimdSqrt                   0      0.00%     75.52% # Type of FU issued
system.cpu.iq.FU_type_0::SimdFloatAdd               0      0.00%     75.52% # Type of FU issued
system.cpu.iq.FU_type_0::SimdFloatAlu               0      0.00%     75.52% # Type of FU issued
system.cpu.iq.FU_type_0::SimdFloatCmp               0      0.00%     75.52% # Type of FU issued
system.cpu.iq.FU_type_0::SimdFloatCvt               0      0.00%     75.52% # Type of FU issued
system.cpu.iq.FU_type_0::SimdFloatDiv               0      0.00%     75.52% # Type of FU issued
system.cpu.iq.FU_type_0::SimdFloatMisc              0      0.00%     75.52% # Type of FU issued
system.cpu.iq.FU_type_0::SimdFloatMult              0      0.00%     75.52% # Type of FU issued
system.cpu.iq.FU_type_0::SimdFloatMultAcc            0      0.00%     75.52% # Type of FU issued
system.cpu.iq.FU_type_0::SimdFloatSqrt              0      0.00%     75.52% # Type of FU issued
system.cpu.iq.FU_type_0::MemRead             26167102     20.05%     95.58% # Type of FU issued
system.cpu.iq.FU_type_0::MemWrite             5772164      4.42%    100.00% # Type of FU issued
system.cpu.iq.FU_type_0::IprAccess                  0      0.00%    100.00% # Type of FU issued
system.cpu.iq.FU_type_0::InstPrefetch               0      0.00%    100.00% # Type of FU issued
system.cpu.iq.FU_type_0::total              130489386                       # Type of FU issued
system.cpu.iq.rate                           0.286882                       # Inst issue rate
system.cpu.iq.fu_busy_cnt                     2478762                       # FU busy when requested
system.cpu.iq.fu_busy_rate                   0.018996                       # FU busy rate (busy events/executed inst)
system.cpu.iq.int_inst_queue_reads          535029797                       # Number of integer instruction queue reads
system.cpu.iq.int_inst_queue_writes          40226238                       # Number of integer instruction queue writes
system.cpu.iq.int_inst_queue_wakeup_accesses     40219686                       # Number of integer instruction queue wakeup accesses
system.cpu.iq.fp_inst_queue_reads           182748563                       # Number of floating instruction queue reads
system.cpu.iq.fp_inst_queue_writes           90274195                       # Number of floating instruction queue writes
system.cpu.iq.fp_inst_queue_wakeup_accesses     90269562                       # Number of floating instruction queue wakeup accesses
system.cpu.iq.int_alu_accesses               40489561                       # Number of integer alu accesses
system.cpu.iq.fp_alu_accesses                92478570                       # Number of floating point alu accesses
system.cpu.iew.lsq.thread0.forwLoads                2                       # Number of loads that had data forwarded from stores
system.cpu.iew.lsq.thread0.invAddrLoads             0                       # Number of loads ignored due to an invalid address
system.cpu.iew.lsq.thread0.squashedLoads         1088                       # Number of loads squashed
system.cpu.iew.lsq.thread0.ignoredResponses            0                       # Number of memory responses ignored because the instruction is squashed
system.cpu.iew.lsq.thread0.memOrderViolation           18                       # Number of memory ordering violations
system.cpu.iew.lsq.thread0.squashedStores          356                       # Number of stores squashed
system.cpu.iew.lsq.thread0.invAddrSwpfs             0                       # Number of software prefetches ignored due to an invalid address
system.cpu.iew.lsq.thread0.blockedLoads             0                       # Number of blocked loads due to partial load-store forwarding
system.cpu.iew.lsq.thread0.rescheduledLoads            0                       # Number of loads that were rescheduled
system.cpu.iew.lsq.thread0.cacheBlocked             6                       # Number of times an access to memory failed due to the cache being blocked
system.cpu.iew.iewIdleCycles                        0                       # Number of cycles IEW is idle
system.cpu.iew.iewSquashCycles                   1601                       # Number of cycles IEW is squashing
system.cpu.iew.iewBlockCycles               205389735                       # Number of cycles IEW is blocking
system.cpu.iew.iewUnblockCycles              20764776                       # Number of cycles IEW is unblocking
system.cpu.iew.iewDispatchedInsts           130494437                       # Number of instructions dispatched to IQ
system.cpu.iew.iewDispSquashedInsts                 0                       # Number of squashed instructions skipped by dispatch
system.cpu.iew.iewDispLoadInsts              26167998                       # Number of dispatched load instructions
system.cpu.iew.iewDispStoreInsts              5772502                       # Number of dispatched store instructions
system.cpu.iew.iewDispNonSpecInsts                  0                       # Number of dispatched non-speculative instructions
system.cpu.iew.iewIQFullEvents                8187722                       # Number of times the IQ has become full, causing a stall
system.cpu.iew.iewLSQFullEvents                     0                       # Number of times the LSQ has become full, causing a stall
system.cpu.iew.memOrderViolationEvents             18                       # Number of memory order violations
system.cpu.iew.predictedTakenIncorrect             17                       # Number of branches that were predicted taken incorrectly
system.cpu.iew.predictedNotTakenIncorrect          124                       # Number of branches that were predicted not taken incorrectly
system.cpu.iew.branchMispredicts                  141                       # Number of branch mispredicts detected at execute
system.cpu.iew.iewExecutedInsts             130489337                       # Number of executed instructions
system.cpu.iew.iewExecLoadInsts              26167077                       # Number of load instructions executed
system.cpu.iew.iewExecSquashedInsts                47                       # Number of squashed instructions skipped in execute
system.cpu.iew.exec_swp                             0                       # number of swp insts executed
system.cpu.iew.exec_nop                             0                       # number of nop insts executed
system.cpu.iew.exec_refs                     31939233                       # number of memory reference insts executed
system.cpu.iew.exec_branches                  3570714                       # Number of branches executed
system.cpu.iew.exec_stores                    5772156                       # Number of stores executed
system.cpu.iew.exec_rate                     0.286882                       # Inst execution rate
system.cpu.iew.wb_sent                      130489256                       # cumulative count of insts sent to commit
system.cpu.iew.wb_count                     130489248                       # cumulative count of insts written-back
system.cpu.iew.wb_producers                 115952107                       # num instructions producing a value
system.cpu.iew.wb_consumers                 210043282                       # num instructions consuming a value
system.cpu.iew.wb_penalized                         0                       # number of instrctions required to write to 'other' IQ
system.cpu.iew.wb_rate                       0.286882                       # insts written-back per cycle
system.cpu.iew.wb_fanout                     0.552039                       # average fanout of values written-back
system.cpu.iew.wb_penalized_rate                    0                       # fraction of instructions written-back that wrote to 'other' IQ
system.cpu.commit.commitSquashedInsts            6007                       # The number of squashed insts skipped by commit
system.cpu.commit.branchMispredicts               137                       # The number of times a branch was mispredicted
system.cpu.commit.committed_per_cycle::samples    454317616                       # Number of insts commited each cycle
system.cpu.commit.committed_per_cycle::mean     0.287218                       # Number of insts commited each cycle
system.cpu.commit.committed_per_cycle::stdev     0.951029                       # Number of insts commited each cycle
system.cpu.commit.committed_per_cycle::underflows            0      0.00%      0.00% # Number of insts commited each cycle
system.cpu.commit.committed_per_cycle::0    409408268     90.11%     90.11% # Number of insts commited each cycle
system.cpu.commit.committed_per_cycle::1      9494035      2.09%     92.20% # Number of insts commited each cycle
system.cpu.commit.committed_per_cycle::2      8459030      1.86%     94.07% # Number of insts commited each cycle
system.cpu.commit.committed_per_cycle::3      3748869      0.83%     94.89% # Number of insts commited each cycle
system.cpu.commit.committed_per_cycle::4     23207414      5.11%    100.00% # Number of insts commited each cycle
system.cpu.commit.committed_per_cycle::overflows            0      0.00%    100.00% # Number of insts commited each cycle
system.cpu.commit.committed_per_cycle::min_value            0                       # Number of insts commited each cycle
system.cpu.commit.committed_per_cycle::max_value            4                       # Number of insts commited each cycle
system.cpu.commit.committed_per_cycle::total    454317616                       # Number of insts commited each cycle
system.cpu.commit.committedInsts            100000002                       # Number of instructions committed
system.cpu.commit.committedOps              130488358                       # Number of ops (including micro ops) committed
system.cpu.commit.swp_count                         0                       # Number of s/w prefetches committed
system.cpu.commit.refs                       31939032                       # Number of memory references committed
system.cpu.commit.loads                      26166894                       # Number of loads committed
system.cpu.commit.membars                           0                       # Number of memory barriers committed
system.cpu.commit.branches                    3570673                       # Number of branches committed
system.cpu.commit.fp_insts                   90269429                       # Number of committed floating point instructions.
system.cpu.commit.int_insts                  70176443                       # Number of committed integer instructions.
system.cpu.commit.function_calls                    0                       # Number of function calls committed.
system.cpu.commit.bw_lim_events              23207414                       # number cycles where commit BW limit reached
system.cpu.commit.bw_limited                        0                       # number of insts not committed due to BW limits
system.cpu.rob.rob_reads                    561604567                       # The number of ROB reads
system.cpu.rob.rob_writes                   260990434                       # The number of ROB writes
system.cpu.timesIdled                          194005                       # Number of times that the entire CPU went into an idle state and unscheduled itself
system.cpu.idleCycles                          534391                       # Total number of cycles that the CPU has spent unscheduled due to idling
system.cpu.committedInsts                   100000002                       # Number of Instructions Simulated
system.cpu.committedOps                     130488358                       # Number of Ops (including micro ops) Simulated
system.cpu.committedInsts_total             100000002                       # Number of Instructions Simulated
system.cpu.cpi                               4.548536                       # CPI: Cycles Per Instruction
system.cpu.cpi_total                         4.548536                       # CPI: Total CPI of All Threads
system.cpu.ipc                               0.219851                       # IPC: Instructions Per Cycle
system.cpu.ipc_total                         0.219851                       # IPC: Total IPC of All Threads
system.cpu.int_regfile_reads                122974660                       # number of integer regfile reads
system.cpu.int_regfile_writes                63205630                       # number of integer regfile writes
system.cpu.fp_regfile_reads                 167062500                       # number of floating regfile reads
system.cpu.fp_regfile_writes                 84952793                       # number of floating regfile writes
system.cpu.misc_regfile_reads                39451459                       # number of misc regfile reads
system.cpu.itb_walker_cache.replacements            0                       # number of replacements
system.cpu.itb_walker_cache.tagsinuse               0                       # Cycle average of tags in use
system.cpu.itb_walker_cache.total_refs              0                       # Total number of references to valid blocks.
system.cpu.itb_walker_cache.sampled_refs            0                       # Sample count of references to valid blocks.
system.cpu.itb_walker_cache.avg_refs              nan                       # Average number of references to valid blocks.
system.cpu.itb_walker_cache.warmup_cycle            0                       # Cycle when the warmup percentage was hit.
system.cpu.itb_walker_cache.blocked_cycles::no_mshrs            0                       # number of cycles access was blocked
system.cpu.itb_walker_cache.blocked_cycles::no_targets            0                       # number of cycles access was blocked
system.cpu.itb_walker_cache.blocked::no_mshrs            0                       # number of cycles access was blocked
system.cpu.itb_walker_cache.blocked::no_targets            0                       # number of cycles access was blocked
system.cpu.itb_walker_cache.avg_blocked_cycles::no_mshrs          nan                       # average number of cycles each access was blocked
system.cpu.itb_walker_cache.avg_blocked_cycles::no_targets          nan                       # average number of cycles each access was blocked
system.cpu.itb_walker_cache.fast_writes             0                       # number of fast writes performed
system.cpu.itb_walker_cache.cache_copies            0                       # number of cache copies performed
system.cpu.itb_walker_cache.no_allocate_misses            0                       # Number of misses that were no-allocate
system.cpu.dtb_walker_cache.replacements            0                       # number of replacements
system.cpu.dtb_walker_cache.tagsinuse               0                       # Cycle average of tags in use
system.cpu.dtb_walker_cache.total_refs              0                       # Total number of references to valid blocks.
system.cpu.dtb_walker_cache.sampled_refs            0                       # Sample count of references to valid blocks.
system.cpu.dtb_walker_cache.avg_refs              nan                       # Average number of references to valid blocks.
system.cpu.dtb_walker_cache.warmup_cycle            0                       # Cycle when the warmup percentage was hit.
system.cpu.dtb_walker_cache.blocked_cycles::no_mshrs            0                       # number of cycles access was blocked
system.cpu.dtb_walker_cache.blocked_cycles::no_targets            0                       # number of cycles access was blocked
system.cpu.dtb_walker_cache.blocked::no_mshrs            0                       # number of cycles access was blocked
system.cpu.dtb_walker_cache.blocked::no_targets            0                       # number of cycles access was blocked
system.cpu.dtb_walker_cache.avg_blocked_cycles::no_mshrs          nan                       # average number of cycles each access was blocked
system.cpu.dtb_walker_cache.avg_blocked_cycles::no_targets          nan                       # average number of cycles each access was blocked
system.cpu.dtb_walker_cache.fast_writes             0                       # number of fast writes performed
system.cpu.dtb_walker_cache.cache_copies            0                       # number of cache copies performed
system.cpu.dtb_walker_cache.no_allocate_misses            0                       # Number of misses that were no-allocate
system.cpu.icache.replacements                      0                       # number of replacements
system.cpu.icache.tagsinuse                 30.775073                       # Cycle average of tags in use
system.cpu.icache.total_refs                  8940156                       # Total number of references to valid blocks.
system.cpu.icache.sampled_refs                     47                       # Sample count of references to valid blocks.
system.cpu.icache.avg_refs               190216.085106                       # Average number of references to valid blocks.
system.cpu.icache.warmup_cycle                      0                       # Cycle when the warmup percentage was hit.
system.cpu.icache.occ_blocks::cpu.inst      30.775073                       # Average occupied blocks per requestor
system.cpu.icache.occ_percent::cpu.inst      0.060108                       # Average percentage of cache occupancy
system.cpu.icache.occ_percent::total         0.060108                       # Average percentage of cache occupancy
system.cpu.icache.ReadReq_hits::cpu.inst      8940156                       # number of ReadReq hits
system.cpu.icache.ReadReq_hits::total         8940156                       # number of ReadReq hits
system.cpu.icache.demand_hits::cpu.inst       8940156                       # number of demand (read+write) hits
system.cpu.icache.demand_hits::total          8940156                       # number of demand (read+write) hits
system.cpu.icache.overall_hits::cpu.inst      8940156                       # number of overall hits
system.cpu.icache.overall_hits::total         8940156                       # number of overall hits
system.cpu.icache.ReadReq_misses::cpu.inst           51                       # number of ReadReq misses
system.cpu.icache.ReadReq_misses::total            51                       # number of ReadReq misses
system.cpu.icache.demand_misses::cpu.inst           51                       # number of demand (read+write) misses
system.cpu.icache.demand_misses::total             51                       # number of demand (read+write) misses
system.cpu.icache.overall_misses::cpu.inst           51                       # number of overall misses
system.cpu.icache.overall_misses::total            51                       # number of overall misses
system.cpu.icache.ReadReq_miss_latency::cpu.inst      2787000                       # number of ReadReq miss cycles
system.cpu.icache.ReadReq_miss_latency::total      2787000                       # number of ReadReq miss cycles
system.cpu.icache.demand_miss_latency::cpu.inst      2787000                       # number of demand (read+write) miss cycles
system.cpu.icache.demand_miss_latency::total      2787000                       # number of demand (read+write) miss cycles
system.cpu.icache.overall_miss_latency::cpu.inst      2787000                       # number of overall miss cycles
system.cpu.icache.overall_miss_latency::total      2787000                       # number of overall miss cycles
system.cpu.icache.ReadReq_accesses::cpu.inst      8940207                       # number of ReadReq accesses(hits+misses)
system.cpu.icache.ReadReq_accesses::total      8940207                       # number of ReadReq accesses(hits+misses)
system.cpu.icache.demand_accesses::cpu.inst      8940207                       # number of demand (read+write) accesses
system.cpu.icache.demand_accesses::total      8940207                       # number of demand (read+write) accesses
system.cpu.icache.overall_accesses::cpu.inst      8940207                       # number of overall (read+write) accesses
system.cpu.icache.overall_accesses::total      8940207                       # number of overall (read+write) accesses
system.cpu.icache.ReadReq_miss_rate::cpu.inst     0.000006                       # miss rate for ReadReq accesses
system.cpu.icache.ReadReq_miss_rate::total     0.000006                       # miss rate for ReadReq accesses
system.cpu.icache.demand_miss_rate::cpu.inst     0.000006                       # miss rate for demand accesses
system.cpu.icache.demand_miss_rate::total     0.000006                       # miss rate for demand accesses
system.cpu.icache.overall_miss_rate::cpu.inst     0.000006                       # miss rate for overall accesses
system.cpu.icache.overall_miss_rate::total     0.000006                       # miss rate for overall accesses
system.cpu.icache.ReadReq_avg_miss_latency::cpu.inst 54647.058824                       # average ReadReq miss latency
system.cpu.icache.ReadReq_avg_miss_latency::total 54647.058824                       # average ReadReq miss latency
system.cpu.icache.demand_avg_miss_latency::cpu.inst 54647.058824                       # average overall miss latency
system.cpu.icache.demand_avg_miss_latency::total 54647.058824                       # average overall miss latency
system.cpu.icache.overall_avg_miss_latency::cpu.inst 54647.058824                       # average overall miss latency
system.cpu.icache.overall_avg_miss_latency::total 54647.058824                       # average overall miss latency
system.cpu.icache.blocked_cycles::no_mshrs            0                       # number of cycles access was blocked
system.cpu.icache.blocked_cycles::no_targets            0                       # number of cycles access was blocked
system.cpu.icache.blocked::no_mshrs                 0                       # number of cycles access was blocked
system.cpu.icache.blocked::no_targets               0                       # number of cycles access was blocked
system.cpu.icache.avg_blocked_cycles::no_mshrs          nan                       # average number of cycles each access was blocked
system.cpu.icache.avg_blocked_cycles::no_targets          nan                       # average number of cycles each access was blocked
system.cpu.icache.fast_writes                       0                       # number of fast writes performed
system.cpu.icache.cache_copies                      0                       # number of cache copies performed
system.cpu.icache.ReadReq_mshr_hits::cpu.inst            4                       # number of ReadReq MSHR hits
system.cpu.icache.ReadReq_mshr_hits::total            4                       # number of ReadReq MSHR hits
system.cpu.icache.demand_mshr_hits::cpu.inst            4                       # number of demand (read+write) MSHR hits
system.cpu.icache.demand_mshr_hits::total            4                       # number of demand (read+write) MSHR hits
system.cpu.icache.overall_mshr_hits::cpu.inst            4                       # number of overall MSHR hits
system.cpu.icache.overall_mshr_hits::total            4                       # number of overall MSHR hits
system.cpu.icache.ReadReq_mshr_misses::cpu.inst           47                       # number of ReadReq MSHR misses
system.cpu.icache.ReadReq_mshr_misses::total           47                       # number of ReadReq MSHR misses
system.cpu.icache.demand_mshr_misses::cpu.inst           47                       # number of demand (read+write) MSHR misses
system.cpu.icache.demand_mshr_misses::total           47                       # number of demand (read+write) MSHR misses
system.cpu.icache.overall_mshr_misses::cpu.inst           47                       # number of overall MSHR misses
system.cpu.icache.overall_mshr_misses::total           47                       # number of overall MSHR misses
system.cpu.icache.ReadReq_mshr_miss_latency::cpu.inst      2585000                       # number of ReadReq MSHR miss cycles
system.cpu.icache.ReadReq_mshr_miss_latency::total      2585000                       # number of ReadReq MSHR miss cycles
system.cpu.icache.demand_mshr_miss_latency::cpu.inst      2585000                       # number of demand (read+write) MSHR miss cycles
system.cpu.icache.demand_mshr_miss_latency::total      2585000                       # number of demand (read+write) MSHR miss cycles
system.cpu.icache.overall_mshr_miss_latency::cpu.inst      2585000                       # number of overall MSHR miss cycles
system.cpu.icache.overall_mshr_miss_latency::total      2585000                       # number of overall MSHR miss cycles
system.cpu.icache.ReadReq_mshr_miss_rate::cpu.inst     0.000005                       # mshr miss rate for ReadReq accesses
system.cpu.icache.ReadReq_mshr_miss_rate::total     0.000005                       # mshr miss rate for ReadReq accesses
system.cpu.icache.demand_mshr_miss_rate::cpu.inst     0.000005                       # mshr miss rate for demand accesses
system.cpu.icache.demand_mshr_miss_rate::total     0.000005                       # mshr miss rate for demand accesses
system.cpu.icache.overall_mshr_miss_rate::cpu.inst     0.000005                       # mshr miss rate for overall accesses
system.cpu.icache.overall_mshr_miss_rate::total     0.000005                       # mshr miss rate for overall accesses
system.cpu.icache.ReadReq_avg_mshr_miss_latency::cpu.inst        55000                       # average ReadReq mshr miss latency
system.cpu.icache.ReadReq_avg_mshr_miss_latency::total        55000                       # average ReadReq mshr miss latency
system.cpu.icache.demand_avg_mshr_miss_latency::cpu.inst        55000                       # average overall mshr miss latency
system.cpu.icache.demand_avg_mshr_miss_latency::total        55000                       # average overall mshr miss latency
system.cpu.icache.overall_avg_mshr_miss_latency::cpu.inst        55000                       # average overall mshr miss latency
system.cpu.icache.overall_avg_mshr_miss_latency::total        55000                       # average overall mshr miss latency
system.cpu.icache.no_allocate_misses                0                       # Number of misses that were no-allocate
system.cpu.dcache.replacements                1557568                       # number of replacements
system.cpu.dcache.tagsinuse                511.588145                       # Cycle average of tags in use
system.cpu.dcache.total_refs                 28843588                       # Total number of references to valid blocks.
system.cpu.dcache.sampled_refs                1558080                       # Sample count of references to valid blocks.
system.cpu.dcache.avg_refs                  18.512264                       # Average number of references to valid blocks.
system.cpu.dcache.warmup_cycle           15513975616000                       # Cycle when the warmup percentage was hit.
system.cpu.dcache.occ_blocks::cpu.data     511.588145                       # Average occupied blocks per requestor
system.cpu.dcache.occ_percent::cpu.data      0.999196                       # Average percentage of cache occupancy
system.cpu.dcache.occ_percent::total         0.999196                       # Average percentage of cache occupancy
system.cpu.dcache.ReadReq_hits::cpu.data     23309525                       # number of ReadReq hits
system.cpu.dcache.ReadReq_hits::total        23309525                       # number of ReadReq hits
system.cpu.dcache.WriteReq_hits::cpu.data      5534063                       # number of WriteReq hits
system.cpu.dcache.WriteReq_hits::total        5534063                       # number of WriteReq hits
system.cpu.dcache.demand_hits::cpu.data      28843588                       # number of demand (read+write) hits
system.cpu.dcache.demand_hits::total         28843588                       # number of demand (read+write) hits
system.cpu.dcache.overall_hits::cpu.data     28843588                       # number of overall hits
system.cpu.dcache.overall_hits::total        28843588                       # number of overall hits
system.cpu.dcache.ReadReq_misses::cpu.data      2857544                       # number of ReadReq misses
system.cpu.dcache.ReadReq_misses::total       2857544                       # number of ReadReq misses
system.cpu.dcache.WriteReq_misses::cpu.data       238074                       # number of WriteReq misses
system.cpu.dcache.WriteReq_misses::total       238074                       # number of WriteReq misses
system.cpu.dcache.demand_misses::cpu.data      3095618                       # number of demand (read+write) misses
system.cpu.dcache.demand_misses::total        3095618                       # number of demand (read+write) misses
system.cpu.dcache.overall_misses::cpu.data      3095618                       # number of overall misses
system.cpu.dcache.overall_misses::total       3095618                       # number of overall misses
system.cpu.dcache.ReadReq_miss_latency::cpu.data 122636740500                       # number of ReadReq miss cycles
system.cpu.dcache.ReadReq_miss_latency::total 122636740500                       # number of ReadReq miss cycles
system.cpu.dcache.WriteReq_miss_latency::cpu.data  13223406500                       # number of WriteReq miss cycles
system.cpu.dcache.WriteReq_miss_latency::total  13223406500                       # number of WriteReq miss cycles
system.cpu.dcache.demand_miss_latency::cpu.data 135860147000                       # number of demand (read+write) miss cycles
system.cpu.dcache.demand_miss_latency::total 135860147000                       # number of demand (read+write) miss cycles
system.cpu.dcache.overall_miss_latency::cpu.data 135860147000                       # number of overall miss cycles
system.cpu.dcache.overall_miss_latency::total 135860147000                       # number of overall miss cycles
system.cpu.dcache.ReadReq_accesses::cpu.data     26167069                       # number of ReadReq accesses(hits+misses)
system.cpu.dcache.ReadReq_accesses::total     26167069                       # number of ReadReq accesses(hits+misses)
system.cpu.dcache.WriteReq_accesses::cpu.data      5772137                       # number of WriteReq accesses(hits+misses)
system.cpu.dcache.WriteReq_accesses::total      5772137                       # number of WriteReq accesses(hits+misses)
system.cpu.dcache.demand_accesses::cpu.data     31939206                       # number of demand (read+write) accesses
system.cpu.dcache.demand_accesses::total     31939206                       # number of demand (read+write) accesses
system.cpu.dcache.overall_accesses::cpu.data     31939206                       # number of overall (read+write) accesses
system.cpu.dcache.overall_accesses::total     31939206                       # number of overall (read+write) accesses
system.cpu.dcache.ReadReq_miss_rate::cpu.data     0.109204                       # miss rate for ReadReq accesses
system.cpu.dcache.ReadReq_miss_rate::total     0.109204                       # miss rate for ReadReq accesses
system.cpu.dcache.WriteReq_miss_rate::cpu.data     0.041245                       # miss rate for WriteReq accesses
system.cpu.dcache.WriteReq_miss_rate::total     0.041245                       # miss rate for WriteReq accesses
system.cpu.dcache.demand_miss_rate::cpu.data     0.096922                       # miss rate for demand accesses
system.cpu.dcache.demand_miss_rate::total     0.096922                       # miss rate for demand accesses
system.cpu.dcache.overall_miss_rate::cpu.data     0.096922                       # miss rate for overall accesses
system.cpu.dcache.overall_miss_rate::total     0.096922                       # miss rate for overall accesses
system.cpu.dcache.ReadReq_avg_miss_latency::cpu.data 42916.833652                       # average ReadReq miss latency
system.cpu.dcache.ReadReq_avg_miss_latency::total 42916.833652                       # average ReadReq miss latency
system.cpu.dcache.WriteReq_avg_miss_latency::cpu.data 55543.261759                       # average WriteReq miss latency
system.cpu.dcache.WriteReq_avg_miss_latency::total 55543.261759                       # average WriteReq miss latency
system.cpu.dcache.demand_avg_miss_latency::cpu.data 43887.891529                       # average overall miss latency
system.cpu.dcache.demand_avg_miss_latency::total 43887.891529                       # average overall miss latency
system.cpu.dcache.overall_avg_miss_latency::cpu.data 43887.891529                       # average overall miss latency
system.cpu.dcache.overall_avg_miss_latency::total 43887.891529                       # average overall miss latency
system.cpu.dcache.blocked_cycles::no_mshrs          189                       # number of cycles access was blocked
system.cpu.dcache.blocked_cycles::no_targets            0                       # number of cycles access was blocked
system.cpu.dcache.blocked::no_mshrs                 6                       # number of cycles access was blocked
system.cpu.dcache.blocked::no_targets               0                       # number of cycles access was blocked
system.cpu.dcache.avg_blocked_cycles::no_mshrs    31.500000                       # average number of cycles each access was blocked
system.cpu.dcache.avg_blocked_cycles::no_targets          nan                       # average number of cycles each access was blocked
system.cpu.dcache.fast_writes                       0                       # number of fast writes performed
system.cpu.dcache.cache_copies                      0                       # number of cache copies performed
system.cpu.dcache.writebacks::writebacks       542391                       # number of writebacks
system.cpu.dcache.writebacks::total            542391                       # number of writebacks
system.cpu.dcache.ReadReq_mshr_hits::cpu.data      1537537                       # number of ReadReq MSHR hits
system.cpu.dcache.ReadReq_mshr_hits::total      1537537                       # number of ReadReq MSHR hits
system.cpu.dcache.demand_mshr_hits::cpu.data      1537537                       # number of demand (read+write) MSHR hits
system.cpu.dcache.demand_mshr_hits::total      1537537                       # number of demand (read+write) MSHR hits
system.cpu.dcache.overall_mshr_hits::cpu.data      1537537                       # number of overall MSHR hits
system.cpu.dcache.overall_mshr_hits::total      1537537                       # number of overall MSHR hits
system.cpu.dcache.ReadReq_mshr_misses::cpu.data      1320007                       # number of ReadReq MSHR misses
system.cpu.dcache.ReadReq_mshr_misses::total      1320007                       # number of ReadReq MSHR misses
system.cpu.dcache.WriteReq_mshr_misses::cpu.data       238074                       # number of WriteReq MSHR misses
system.cpu.dcache.WriteReq_mshr_misses::total       238074                       # number of WriteReq MSHR misses
system.cpu.dcache.demand_mshr_misses::cpu.data      1558081                       # number of demand (read+write) MSHR misses
system.cpu.dcache.demand_mshr_misses::total      1558081                       # number of demand (read+write) MSHR misses
system.cpu.dcache.overall_mshr_misses::cpu.data      1558081                       # number of overall MSHR misses
system.cpu.dcache.overall_mshr_misses::total      1558081                       # number of overall MSHR misses
system.cpu.dcache.ReadReq_mshr_miss_latency::cpu.data  72336000500                       # number of ReadReq MSHR miss cycles
system.cpu.dcache.ReadReq_mshr_miss_latency::total  72336000500                       # number of ReadReq MSHR miss cycles
system.cpu.dcache.WriteReq_mshr_miss_latency::cpu.data  12747258500                       # number of WriteReq MSHR miss cycles
system.cpu.dcache.WriteReq_mshr_miss_latency::total  12747258500                       # number of WriteReq MSHR miss cycles
system.cpu.dcache.demand_mshr_miss_latency::cpu.data  85083259000                       # number of demand (read+write) MSHR miss cycles
system.cpu.dcache.demand_mshr_miss_latency::total  85083259000                       # number of demand (read+write) MSHR miss cycles
system.cpu.dcache.overall_mshr_miss_latency::cpu.data  85083259000                       # number of overall MSHR miss cycles
system.cpu.dcache.overall_mshr_miss_latency::total  85083259000                       # number of overall MSHR miss cycles
system.cpu.dcache.ReadReq_mshr_miss_rate::cpu.data     0.050445                       # mshr miss rate for ReadReq accesses
system.cpu.dcache.ReadReq_mshr_miss_rate::total     0.050445                       # mshr miss rate for ReadReq accesses
system.cpu.dcache.WriteReq_mshr_miss_rate::cpu.data     0.041245                       # mshr miss rate for WriteReq accesses
system.cpu.dcache.WriteReq_mshr_miss_rate::total     0.041245                       # mshr miss rate for WriteReq accesses
system.cpu.dcache.demand_mshr_miss_rate::cpu.data     0.048783                       # mshr miss rate for demand accesses
system.cpu.dcache.demand_mshr_miss_rate::total     0.048783                       # mshr miss rate for demand accesses
system.cpu.dcache.overall_mshr_miss_rate::cpu.data     0.048783                       # mshr miss rate for overall accesses
system.cpu.dcache.overall_mshr_miss_rate::total     0.048783                       # mshr miss rate for overall accesses
system.cpu.dcache.ReadReq_avg_mshr_miss_latency::cpu.data 54799.709774                       # average ReadReq mshr miss latency
system.cpu.dcache.ReadReq_avg_mshr_miss_latency::total 54799.709774                       # average ReadReq mshr miss latency
system.cpu.dcache.WriteReq_avg_mshr_miss_latency::cpu.data 53543.261759                       # average WriteReq mshr miss latency
system.cpu.dcache.WriteReq_avg_mshr_miss_latency::total 53543.261759                       # average WriteReq mshr miss latency
system.cpu.dcache.demand_avg_mshr_miss_latency::cpu.data 54607.725144                       # average overall mshr miss latency
system.cpu.dcache.demand_avg_mshr_miss_latency::total 54607.725144                       # average overall mshr miss latency
system.cpu.dcache.overall_avg_mshr_miss_latency::cpu.data 54607.725144                       # average overall mshr miss latency
system.cpu.dcache.overall_avg_mshr_miss_latency::total 54607.725144                       # average overall mshr miss latency
system.cpu.dcache.no_allocate_misses                0                       # Number of misses that were no-allocate

---------- End Simulation Statistics   ----------
