
---------- Begin Simulation Statistics ----------
sim_seconds                                  0.072819                       # Number of seconds simulated
sim_ticks                                 72818922000                       # Number of ticks simulated
final_tick                               15586314511000                       # Number of ticks from beginning of simulation (restored from checkpoints and never reset)
sim_freq                                 1000000000000                       # Frequency of simulated ticks
host_inst_rate                                  79695                       # Simulator instruction rate (inst/s)
host_op_rate                                   103992                       # Simulator op (including micro ops) rate (op/s)
host_tick_rate                               58032916                       # Simulator tick rate (ticks/s)
host_mem_usage                                2432400                       # Number of bytes of host memory used
host_seconds                                  1254.79                       # Real time elapsed on the host
sim_insts                                   100000000                       # Number of instructions simulated
sim_ops                                     130488355                       # Number of ops (including micro ops) simulated
system.physmem.bytes_read::cpu.inst              2752                       # Number of bytes read from this memory
system.physmem.bytes_read::cpu.data          99692096                       # Number of bytes read from this memory
system.physmem.bytes_read::total             99694848                       # Number of bytes read from this memory
system.physmem.bytes_inst_read::cpu.inst         2752                       # Number of instructions bytes read from this memory
system.physmem.bytes_inst_read::total            2752                       # Number of instructions bytes read from this memory
system.physmem.bytes_written::writebacks     34566016                       # Number of bytes written to this memory
system.physmem.bytes_written::total          34566016                       # Number of bytes written to this memory
system.physmem.num_reads::cpu.inst                 43                       # Number of read requests responded to by this memory
system.physmem.num_reads::cpu.data            1557689                       # Number of read requests responded to by this memory
system.physmem.num_reads::total               1557732                       # Number of read requests responded to by this memory
system.physmem.num_writes::writebacks          540094                       # Number of write requests responded to by this memory
system.physmem.num_writes::total               540094                       # Number of write requests responded to by this memory
system.physmem.bw_read::cpu.inst                37792                       # Total read bandwidth from this memory (bytes/s)
system.physmem.bw_read::cpu.data           1369041085                       # Total read bandwidth from this memory (bytes/s)
system.physmem.bw_read::total              1369078878                       # Total read bandwidth from this memory (bytes/s)
system.physmem.bw_inst_read::cpu.inst           37792                       # Instruction read bandwidth from this memory (bytes/s)
system.physmem.bw_inst_read::total              37792                       # Instruction read bandwidth from this memory (bytes/s)
system.physmem.bw_write::writebacks         474684533                       # Write bandwidth from this memory (bytes/s)
system.physmem.bw_write::total              474684533                       # Write bandwidth from this memory (bytes/s)
system.physmem.bw_total::writebacks         474684533                       # Total bandwidth to/from this memory (bytes/s)
system.physmem.bw_total::cpu.inst               37792                       # Total bandwidth to/from this memory (bytes/s)
system.physmem.bw_total::cpu.data          1369041085                       # Total bandwidth to/from this memory (bytes/s)
system.physmem.bw_total::total             1843763411                       # Total bandwidth to/from this memory (bytes/s)
system.l2.replacements                        1553637                       # number of replacements
system.l2.tagsinuse                       4022.166622                       # Cycle average of tags in use
system.l2.total_refs                           304703                       # Total number of references to valid blocks.
system.l2.sampled_refs                        1557733                       # Sample count of references to valid blocks.
system.l2.avg_refs                           0.195607                       # Average number of references to valid blocks.
system.l2.warmup_cycle                   15570502170000                       # Cycle when the warmup percentage was hit.
system.l2.occ_blocks::writebacks          2428.229371                       # Average occupied blocks per requestor
system.l2.occ_blocks::cpu.inst               0.337463                       # Average occupied blocks per requestor
system.l2.occ_blocks::cpu.data            1593.599787                       # Average occupied blocks per requestor
system.l2.occ_percent::writebacks            0.592829                       # Average percentage of cache occupancy
system.l2.occ_percent::cpu.inst              0.000082                       # Average percentage of cache occupancy
system.l2.occ_percent::cpu.data              0.389062                       # Average percentage of cache occupancy
system.l2.occ_percent::total                 0.981974                       # Average percentage of cache occupancy
system.l2.ReadReq_hits::cpu.data                  387                       # number of ReadReq hits
system.l2.ReadReq_hits::total                     387                       # number of ReadReq hits
system.l2.Writeback_hits::writebacks           542391                       # number of Writeback hits
system.l2.Writeback_hits::total                542391                       # number of Writeback hits
system.l2.demand_hits::cpu.data                   387                       # number of demand (read+write) hits
system.l2.demand_hits::total                      387                       # number of demand (read+write) hits
system.l2.overall_hits::cpu.data                  387                       # number of overall hits
system.l2.overall_hits::total                     387                       # number of overall hits
system.l2.ReadReq_misses::cpu.inst                 43                       # number of ReadReq misses
system.l2.ReadReq_misses::cpu.data            1319615                       # number of ReadReq misses
system.l2.ReadReq_misses::total               1319658                       # number of ReadReq misses
system.l2.ReadExReq_misses::cpu.data           238074                       # number of ReadExReq misses
system.l2.ReadExReq_misses::total              238074                       # number of ReadExReq misses
system.l2.demand_misses::cpu.inst                  43                       # number of demand (read+write) misses
system.l2.demand_misses::cpu.data             1557689                       # number of demand (read+write) misses
system.l2.demand_misses::total                1557732                       # number of demand (read+write) misses
system.l2.overall_misses::cpu.inst                 43                       # number of overall misses
system.l2.overall_misses::cpu.data            1557689                       # number of overall misses
system.l2.overall_misses::total               1557732                       # number of overall misses
system.l2.ReadReq_miss_latency::cpu.inst      2372500                       # number of ReadReq miss cycles
system.l2.ReadReq_miss_latency::cpu.data  70953432000                       # number of ReadReq miss cycles
system.l2.ReadReq_miss_latency::total     70955804500                       # number of ReadReq miss cycles
system.l2.ReadExReq_miss_latency::cpu.data  12887565000                       # number of ReadExReq miss cycles
system.l2.ReadExReq_miss_latency::total   12887565000                       # number of ReadExReq miss cycles
system.l2.demand_miss_latency::cpu.inst       2372500                       # number of demand (read+write) miss cycles
system.l2.demand_miss_latency::cpu.data   83840997000                       # number of demand (read+write) miss cycles
system.l2.demand_miss_latency::total      83843369500                       # number of demand (read+write) miss cycles
system.l2.overall_miss_latency::cpu.inst      2372500                       # number of overall miss cycles
system.l2.overall_miss_latency::cpu.data  83840997000                       # number of overall miss cycles
system.l2.overall_miss_latency::total     83843369500                       # number of overall miss cycles
system.l2.ReadReq_accesses::cpu.inst               43                       # number of ReadReq accesses(hits+misses)
system.l2.ReadReq_accesses::cpu.data          1320002                       # number of ReadReq accesses(hits+misses)
system.l2.ReadReq_accesses::total             1320045                       # number of ReadReq accesses(hits+misses)
system.l2.Writeback_accesses::writebacks       542391                       # number of Writeback accesses(hits+misses)
system.l2.Writeback_accesses::total            542391                       # number of Writeback accesses(hits+misses)
system.l2.ReadExReq_accesses::cpu.data         238074                       # number of ReadExReq accesses(hits+misses)
system.l2.ReadExReq_accesses::total            238074                       # number of ReadExReq accesses(hits+misses)
system.l2.demand_accesses::cpu.inst                43                       # number of demand (read+write) accesses
system.l2.demand_accesses::cpu.data           1558076                       # number of demand (read+write) accesses
system.l2.demand_accesses::total              1558119                       # number of demand (read+write) accesses
system.l2.overall_accesses::cpu.inst               43                       # number of overall (read+write) accesses
system.l2.overall_accesses::cpu.data          1558076                       # number of overall (read+write) accesses
system.l2.overall_accesses::total             1558119                       # number of overall (read+write) accesses
system.l2.ReadReq_miss_rate::cpu.inst               1                       # miss rate for ReadReq accesses
system.l2.ReadReq_miss_rate::cpu.data        0.999707                       # miss rate for ReadReq accesses
system.l2.ReadReq_miss_rate::total           0.999707                       # miss rate for ReadReq accesses
system.l2.ReadExReq_miss_rate::cpu.data             1                       # miss rate for ReadExReq accesses
system.l2.ReadExReq_miss_rate::total                1                       # miss rate for ReadExReq accesses
system.l2.demand_miss_rate::cpu.inst                1                       # miss rate for demand accesses
system.l2.demand_miss_rate::cpu.data         0.999752                       # miss rate for demand accesses
system.l2.demand_miss_rate::total            0.999752                       # miss rate for demand accesses
system.l2.overall_miss_rate::cpu.inst               1                       # miss rate for overall accesses
system.l2.overall_miss_rate::cpu.data        0.999752                       # miss rate for overall accesses
system.l2.overall_miss_rate::total           0.999752                       # miss rate for overall accesses
system.l2.ReadReq_avg_miss_latency::cpu.inst 55174.418605                       # average ReadReq miss latency
system.l2.ReadReq_avg_miss_latency::cpu.data 53768.282416                       # average ReadReq miss latency
system.l2.ReadReq_avg_miss_latency::total 53768.328234                       # average ReadReq miss latency
system.l2.ReadExReq_avg_miss_latency::cpu.data 54132.601628                       # average ReadExReq miss latency
system.l2.ReadExReq_avg_miss_latency::total 54132.601628                       # average ReadExReq miss latency
system.l2.demand_avg_miss_latency::cpu.inst 55174.418605                       # average overall miss latency
system.l2.demand_avg_miss_latency::cpu.data 53823.964219                       # average overall miss latency
system.l2.demand_avg_miss_latency::total 53824.001497                       # average overall miss latency
system.l2.overall_avg_miss_latency::cpu.inst 55174.418605                       # average overall miss latency
system.l2.overall_avg_miss_latency::cpu.data 53823.964219                       # average overall miss latency
system.l2.overall_avg_miss_latency::total 53824.001497                       # average overall miss latency
system.l2.blocked_cycles::no_mshrs                  0                       # number of cycles access was blocked
system.l2.blocked_cycles::no_targets                0                       # number of cycles access was blocked
system.l2.blocked::no_mshrs                         0                       # number of cycles access was blocked
system.l2.blocked::no_targets                       0                       # number of cycles access was blocked
system.l2.avg_blocked_cycles::no_mshrs            nan                       # average number of cycles each access was blocked
system.l2.avg_blocked_cycles::no_targets          nan                       # average number of cycles each access was blocked
system.l2.fast_writes                               0                       # number of fast writes performed
system.l2.cache_copies                              0                       # number of cache copies performed
system.l2.writebacks::writebacks               540094                       # number of writebacks
system.l2.writebacks::total                    540094                       # number of writebacks
system.l2.ReadReq_mshr_misses::cpu.inst            43                       # number of ReadReq MSHR misses
system.l2.ReadReq_mshr_misses::cpu.data       1319615                       # number of ReadReq MSHR misses
system.l2.ReadReq_mshr_misses::total          1319658                       # number of ReadReq MSHR misses
system.l2.ReadExReq_mshr_misses::cpu.data       238074                       # number of ReadExReq MSHR misses
system.l2.ReadExReq_mshr_misses::total         238074                       # number of ReadExReq MSHR misses
system.l2.demand_mshr_misses::cpu.inst             43                       # number of demand (read+write) MSHR misses
system.l2.demand_mshr_misses::cpu.data        1557689                       # number of demand (read+write) MSHR misses
system.l2.demand_mshr_misses::total           1557732                       # number of demand (read+write) MSHR misses
system.l2.overall_mshr_misses::cpu.inst            43                       # number of overall MSHR misses
system.l2.overall_mshr_misses::cpu.data       1557689                       # number of overall MSHR misses
system.l2.overall_mshr_misses::total          1557732                       # number of overall MSHR misses
system.l2.ReadReq_mshr_miss_latency::cpu.inst      1847500                       # number of ReadReq MSHR miss cycles
system.l2.ReadReq_mshr_miss_latency::cpu.data  54899541500                       # number of ReadReq MSHR miss cycles
system.l2.ReadReq_mshr_miss_latency::total  54901389000                       # number of ReadReq MSHR miss cycles
system.l2.ReadExReq_mshr_miss_latency::cpu.data   9965118000                       # number of ReadExReq MSHR miss cycles
system.l2.ReadExReq_mshr_miss_latency::total   9965118000                       # number of ReadExReq MSHR miss cycles
system.l2.demand_mshr_miss_latency::cpu.inst      1847500                       # number of demand (read+write) MSHR miss cycles
system.l2.demand_mshr_miss_latency::cpu.data  64864659500                       # number of demand (read+write) MSHR miss cycles
system.l2.demand_mshr_miss_latency::total  64866507000                       # number of demand (read+write) MSHR miss cycles
system.l2.overall_mshr_miss_latency::cpu.inst      1847500                       # number of overall MSHR miss cycles
system.l2.overall_mshr_miss_latency::cpu.data  64864659500                       # number of overall MSHR miss cycles
system.l2.overall_mshr_miss_latency::total  64866507000                       # number of overall MSHR miss cycles
system.l2.ReadReq_mshr_miss_rate::cpu.inst            1                       # mshr miss rate for ReadReq accesses
system.l2.ReadReq_mshr_miss_rate::cpu.data     0.999707                       # mshr miss rate for ReadReq accesses
system.l2.ReadReq_mshr_miss_rate::total      0.999707                       # mshr miss rate for ReadReq accesses
system.l2.ReadExReq_mshr_miss_rate::cpu.data            1                       # mshr miss rate for ReadExReq accesses
system.l2.ReadExReq_mshr_miss_rate::total            1                       # mshr miss rate for ReadExReq accesses
system.l2.demand_mshr_miss_rate::cpu.inst            1                       # mshr miss rate for demand accesses
system.l2.demand_mshr_miss_rate::cpu.data     0.999752                       # mshr miss rate for demand accesses
system.l2.demand_mshr_miss_rate::total       0.999752                       # mshr miss rate for demand accesses
system.l2.overall_mshr_miss_rate::cpu.inst            1                       # mshr miss rate for overall accesses
system.l2.overall_mshr_miss_rate::cpu.data     0.999752                       # mshr miss rate for overall accesses
system.l2.overall_mshr_miss_rate::total      0.999752                       # mshr miss rate for overall accesses
system.l2.ReadReq_avg_mshr_miss_latency::cpu.inst 42965.116279                       # average ReadReq mshr miss latency
system.l2.ReadReq_avg_mshr_miss_latency::cpu.data 41602.695862                       # average ReadReq mshr miss latency
system.l2.ReadReq_avg_mshr_miss_latency::total 41602.740255                       # average ReadReq mshr miss latency
system.l2.ReadExReq_avg_mshr_miss_latency::cpu.data 41857.229265                       # average ReadExReq mshr miss latency
system.l2.ReadExReq_avg_mshr_miss_latency::total 41857.229265                       # average ReadExReq mshr miss latency
system.l2.demand_avg_mshr_miss_latency::cpu.inst 42965.116279                       # average overall mshr miss latency
system.l2.demand_avg_mshr_miss_latency::cpu.data 41641.598227                       # average overall mshr miss latency
system.l2.demand_avg_mshr_miss_latency::total 41641.634761                       # average overall mshr miss latency
system.l2.overall_avg_mshr_miss_latency::cpu.inst 42965.116279                       # average overall mshr miss latency
system.l2.overall_avg_mshr_miss_latency::cpu.data 41641.598227                       # average overall mshr miss latency
system.l2.overall_avg_mshr_miss_latency::total 41641.634761                       # average overall mshr miss latency
system.l2.no_allocate_misses                        0                       # Number of misses that were no-allocate
system.cpu.branchPred.lookups                 3571052                       # Number of BP lookups
system.cpu.branchPred.condPredicted           3571052                       # Number of conditional branches predicted
system.cpu.branchPred.condIncorrect               128                       # Number of conditional branches incorrect
system.cpu.branchPred.BTBLookups              2680140                       # Number of BTB lookups
system.cpu.branchPred.BTBHits                 2680004                       # Number of BTB hits
system.cpu.branchPred.BTBCorrect                    0                       # Number of correct BTB predictions (this stat may not work properly.
system.cpu.branchPred.BTBHitPct             99.994926                       # BTB Hit Percentage
system.cpu.branchPred.usedRAS                       0                       # Number of times the RAS was used to get a target.
system.cpu.branchPred.RASInCorrect                  0                       # Number of incorrect RAS predictions.
system.cpu.workload.num_syscalls                    0                       # Number of system calls
system.cpu.numCycles                        145637844                       # number of cpu cycles simulated
system.cpu.numWorkItemsStarted                      0                       # number of work items this cpu started
system.cpu.numWorkItemsCompleted                    0                       # number of work items this cpu completed
system.cpu.fetch.icacheStallCycles            8942025                       # Number of cycles fetch is stalled on an Icache miss
system.cpu.fetch.Insts                      100003562                       # Number of instructions fetch has processed
system.cpu.fetch.Branches                     3571052                       # Number of branches that fetch encountered
system.cpu.fetch.predictedBranches            2680004                       # Number of branches that fetch has predicted taken
system.cpu.fetch.Cycles                      37658917                       # Number of cycles fetch has run and was not squashing or blocked
system.cpu.fetch.SquashCycles                    1270                       # Number of cycles fetch has spent squashing
system.cpu.fetch.BlockedCycles               98548476                       # Number of cycles fetch has spent blocked
system.cpu.fetch.CacheLines                   8940139                       # Number of cache lines fetched
system.cpu.fetch.IcacheSquashes                    34                       # Number of outstanding Icache misses that were squashed
system.cpu.fetch.rateDist::samples          145150542                       # Number of instructions fetched each cycle (Total)
system.cpu.fetch.rateDist::mean              0.899025                       # Number of instructions fetched each cycle (Total)
system.cpu.fetch.rateDist::stdev             1.624611                       # Number of instructions fetched each cycle (Total)
system.cpu.fetch.rateDist::underflows               0      0.00%      0.00% # Number of instructions fetched each cycle (Total)
system.cpu.fetch.rateDist::0                109780850     75.63%     75.63% # Number of instructions fetched each cycle (Total)
system.cpu.fetch.rateDist::1                   987751      0.68%     76.31% # Number of instructions fetched each cycle (Total)
system.cpu.fetch.rateDist::2                  2736902      1.89%     78.20% # Number of instructions fetched each cycle (Total)
system.cpu.fetch.rateDist::3                  2547709      1.76%     79.95% # Number of instructions fetched each cycle (Total)
system.cpu.fetch.rateDist::4                 29097330     20.05%    100.00% # Number of instructions fetched each cycle (Total)
system.cpu.fetch.rateDist::overflows                0      0.00%    100.00% # Number of instructions fetched each cycle (Total)
system.cpu.fetch.rateDist::min_value                0                       # Number of instructions fetched each cycle (Total)
system.cpu.fetch.rateDist::max_value                4                       # Number of instructions fetched each cycle (Total)
system.cpu.fetch.rateDist::total            145150542                       # Number of instructions fetched each cycle (Total)
system.cpu.fetch.branchRate                  0.024520                       # Number of branch fetches per cycle
system.cpu.fetch.rate                        0.686659                       # Number of inst fetches per cycle
system.cpu.decode.IdleCycles                 18969613                       # Number of cycles decode is idle
system.cpu.decode.BlockedCycles              90810208                       # Number of cycles decode is blocked
system.cpu.decode.RunCycles                  28831593                       # Number of cycles decode is running
system.cpu.decode.UnblockCycles               6537971                       # Number of cycles decode is unblocking
system.cpu.decode.SquashCycles                   1124                       # Number of cycles decode is squashing
system.cpu.decode.DecodedInsts              130493641                       # Number of instructions handled by decode
system.cpu.rename.SquashCycles                   1124                       # Number of cycles rename is squashing
system.cpu.rename.IdleCycles                 23822797                       # Number of cycles rename is idle
system.cpu.rename.BlockCycles                67822650                       # Number of cycles rename is blocking
system.cpu.rename.serializeStallCycles              0                       # count of cycles rename stalled for serializing inst
system.cpu.rename.RunCycles                  29817745                       # Number of cycles rename is running
system.cpu.rename.UnblockCycles              23686193                       # Number of cycles rename is unblocking
system.cpu.rename.RenamedInsts              130493277                       # Number of instructions processed by rename
system.cpu.rename.ROBFullEvents                562968                       # Number of times rename has blocked due to ROB full
system.cpu.rename.IQFullEvents               17038301                       # Number of times rename has blocked due to IQ full
system.cpu.rename.LSQFullEvents               2581278                       # Number of times rename has blocked due to LSQ full
system.cpu.rename.RenamedOperands           148163188                       # Number of destination operands rename has renamed
system.cpu.rename.RenameLookups             329497952                       # Number of register rename lookups that rename has made
system.cpu.rename.int_rename_lookups         72558164                       # Number of integer rename lookups
system.cpu.rename.fp_rename_lookups         256939788                       # Number of floating rename lookups
system.cpu.rename.CommittedMaps             148157081                       # Number of HB maps that are committed
system.cpu.rename.UndoneMaps                     5984                       # Number of HB maps that are undone due to squashing
system.cpu.rename.serializingInsts                  0                       # count of serializing insts renamed
system.cpu.rename.tempSerializingInsts              0                       # count of temporary serializing insts renamed
system.cpu.rename.skidInsts                  35355155                       # count of insts added to the skid buffer
system.cpu.memDep0.insertedLoads             26167680                       # Number of loads inserted to the mem dependence unit.
system.cpu.memDep0.insertedStores             5772392                       # Number of stores inserted to the mem dependence unit.
system.cpu.memDep0.conflictingLoads            913826                       # Number of conflicting loads.
system.cpu.memDep0.conflictingStores           812237                       # Number of conflicting stores.
system.cpu.iq.iqInstsAdded                  130492661                       # Number of instructions added to the IQ (excludes non-spec)
system.cpu.iq.iqInstsIssued                 130489498                       # Number of instructions issued
system.cpu.iq.iqSquashedInstsIssued              1073                       # Number of squashed instructions issued
system.cpu.iq.iqSquashedInstsExamined            4221                       # Number of squashed instructions iterated over during squash; mainly for profiling
system.cpu.iq.iqSquashedOperandsExamined         7927                       # Number of squashed operands that are examined and possibly removed from graph
system.cpu.iq.issued_per_cycle::samples     145150542                       # Number of insts issued each cycle
system.cpu.iq.issued_per_cycle::mean         0.898994                       # Number of insts issued each cycle
system.cpu.iq.issued_per_cycle::stdev        0.957906                       # Number of insts issued each cycle
system.cpu.iq.issued_per_cycle::underflows            0      0.00%      0.00% # Number of insts issued each cycle
system.cpu.iq.issued_per_cycle::0            61330383     42.25%     42.25% # Number of insts issued each cycle
system.cpu.iq.issued_per_cycle::1            49439718     34.06%     76.31% # Number of insts issued each cycle
system.cpu.iq.issued_per_cycle::2            23137153     15.94%     92.25% # Number of insts issued each cycle
system.cpu.iq.issued_per_cycle::3            10197678      7.03%     99.28% # Number of insts issued each cycle
system.cpu.iq.issued_per_cycle::4             1045610      0.72%    100.00% # Number of insts issued each cycle
system.cpu.iq.issued_per_cycle::overflows            0      0.00%    100.00% # Number of insts issued each cycle
system.cpu.iq.issued_per_cycle::min_value            0                       # Number of insts issued each cycle
system.cpu.iq.issued_per_cycle::max_value            4                       # Number of insts issued each cycle
system.cpu.iq.issued_per_cycle::total       145150542                       # Number of insts issued each cycle
system.cpu.iq.fu_full::No_OpClass                   0      0.00%      0.00% # attempts to use FU when none available
system.cpu.iq.fu_full::IntAlu                       0      0.00%      0.00% # attempts to use FU when none available
system.cpu.iq.fu_full::IntMult                      0      0.00%      0.00% # attempts to use FU when none available
system.cpu.iq.fu_full::IntDiv                       0      0.00%      0.00% # attempts to use FU when none available
system.cpu.iq.fu_full::FloatAdd              25844067    100.00%    100.00% # attempts to use FU when none available
system.cpu.iq.fu_full::FloatCmp                     0      0.00%    100.00% # attempts to use FU when none available
system.cpu.iq.fu_full::FloatCvt                     0      0.00%    100.00% # attempts to use FU when none available
system.cpu.iq.fu_full::FloatMult                    0      0.00%    100.00% # attempts to use FU when none available
system.cpu.iq.fu_full::FloatDiv                     0      0.00%    100.00% # attempts to use FU when none available
system.cpu.iq.fu_full::FloatSqrt                    0      0.00%    100.00% # attempts to use FU when none available
system.cpu.iq.fu_full::SimdAdd                      0      0.00%    100.00% # attempts to use FU when none available
system.cpu.iq.fu_full::SimdAddAcc                   0      0.00%    100.00% # attempts to use FU when none available
system.cpu.iq.fu_full::SimdAlu                      0      0.00%    100.00% # attempts to use FU when none available
system.cpu.iq.fu_full::SimdCmp                      0      0.00%    100.00% # attempts to use FU when none available
system.cpu.iq.fu_full::SimdCvt                      0      0.00%    100.00% # attempts to use FU when none available
system.cpu.iq.fu_full::SimdMisc                     0      0.00%    100.00% # attempts to use FU when none available
system.cpu.iq.fu_full::SimdMult                     0      0.00%    100.00% # attempts to use FU when none available
system.cpu.iq.fu_full::SimdMultAcc                  0      0.00%    100.00% # attempts to use FU when none available
system.cpu.iq.fu_full::SimdShift                    0      0.00%    100.00% # attempts to use FU when none available
system.cpu.iq.fu_full::SimdShiftAcc                 0      0.00%    100.00% # attempts to use FU when none available
system.cpu.iq.fu_full::SimdSqrt                     0      0.00%    100.00% # attempts to use FU when none available
system.cpu.iq.fu_full::SimdFloatAdd                 0      0.00%    100.00% # attempts to use FU when none available
system.cpu.iq.fu_full::SimdFloatAlu                 0      0.00%    100.00% # attempts to use FU when none available
system.cpu.iq.fu_full::SimdFloatCmp                 0      0.00%    100.00% # attempts to use FU when none available
system.cpu.iq.fu_full::SimdFloatCvt                 0      0.00%    100.00% # attempts to use FU when none available
system.cpu.iq.fu_full::SimdFloatDiv                 0      0.00%    100.00% # attempts to use FU when none available
system.cpu.iq.fu_full::SimdFloatMisc                0      0.00%    100.00% # attempts to use FU when none available
system.cpu.iq.fu_full::SimdFloatMult                0      0.00%    100.00% # attempts to use FU when none available
system.cpu.iq.fu_full::SimdFloatMultAcc             0      0.00%    100.00% # attempts to use FU when none available
system.cpu.iq.fu_full::SimdFloatSqrt                0      0.00%    100.00% # attempts to use FU when none available
system.cpu.iq.fu_full::MemRead                      0      0.00%    100.00% # attempts to use FU when none available
system.cpu.iq.fu_full::MemWrite                     0      0.00%    100.00% # attempts to use FU when none available
system.cpu.iq.fu_full::IprAccess                    0      0.00%    100.00% # attempts to use FU when none available
system.cpu.iq.fu_full::InstPrefetch                 0      0.00%    100.00% # attempts to use FU when none available
system.cpu.iq.FU_type_0::No_OpClass                20      0.00%      0.00% # Type of FU issued
system.cpu.iq.FU_type_0::IntAlu              38238240     29.30%     29.30% # Type of FU issued
system.cpu.iq.FU_type_0::IntMult                    0      0.00%     29.30% # Type of FU issued
system.cpu.iq.FU_type_0::IntDiv                     0      0.00%     29.30% # Type of FU issued
system.cpu.iq.FU_type_0::FloatAdd            60311958     46.22%     75.52% # Type of FU issued
system.cpu.iq.FU_type_0::FloatCmp                   0      0.00%     75.52% # Type of FU issued
system.cpu.iq.FU_type_0::FloatCvt                   0      0.00%     75.52% # Type of FU issued
system.cpu.iq.FU_type_0::FloatMult                  0      0.00%     75.52% # Type of FU issued
system.cpu.iq.FU_type_0::FloatDiv                   0      0.00%     75.52% # Type of FU issued
system.cpu.iq.FU_type_0::FloatSqrt                  0      0.00%     75.52% # Type of FU issued
system.cpu.iq.FU_type_0::SimdAdd                    0      0.00%     75.52% # Type of FU issued
system.cpu.iq.FU_type_0::SimdAddAcc                 0      0.00%     75.52% # Type of FU issued
system.cpu.iq.FU_type_0::SimdAlu                    0      0.00%     75.52% # Type of FU issued
system.cpu.iq.FU_type_0::SimdCmp                    0      0.00%     75.52% # Type of FU issued
system.cpu.iq.FU_type_0::SimdCvt                    0      0.00%     75.52% # Type of FU issued
system.cpu.iq.FU_type_0::SimdMisc                   0      0.00%     75.52% # Type of FU issued
system.cpu.iq.FU_type_0::SimdMult                   0      0.00%     75.52% # Type of FU issued
system.cpu.iq.FU_type_0::SimdMultAcc                0      0.00%     75.52% # Type of FU issued
system.cpu.iq.FU_type_0::SimdShift                  0      0.00%     75.52% # Type of FU issued
system.cpu.iq.FU_type_0::SimdShiftAcc               0      0.00%     75.52% # Type of FU issued
system.cpu.iq.FU_type_0::SimdSqrt                   0      0.00%     75.52% # Type of FU issued
system.cpu.iq.FU_type_0::SimdFloatAdd               0      0.00%     75.52% # Type of FU issued
system.cpu.iq.FU_type_0::SimdFloatAlu               0      0.00%     75.52% # Type of FU issued
system.cpu.iq.FU_type_0::SimdFloatCmp               0      0.00%     75.52% # Type of FU issued
system.cpu.iq.FU_type_0::SimdFloatCvt               0      0.00%     75.52% # Type of FU issued
system.cpu.iq.FU_type_0::SimdFloatDiv               0      0.00%     75.52% # Type of FU issued
system.cpu.iq.FU_type_0::SimdFloatMisc              0      0.00%     75.52% # Type of FU issued
system.cpu.iq.FU_type_0::SimdFloatMult              0      0.00%     75.52% # Type of FU issued
system.cpu.iq.FU_type_0::SimdFloatMultAcc            0      0.00%     75.52% # Type of FU issued
system.cpu.iq.FU_type_0::SimdFloatSqrt              0      0.00%     75.52% # Type of FU issued
system.cpu.iq.FU_type_0::MemRead             26167107     20.05%     95.58% # Type of FU issued
system.cpu.iq.FU_type_0::MemWrite             5772173      4.42%    100.00% # Type of FU issued
system.cpu.iq.FU_type_0::IprAccess                  0      0.00%    100.00% # Type of FU issued
system.cpu.iq.FU_type_0::InstPrefetch               0      0.00%    100.00% # Type of FU issued
system.cpu.iq.FU_type_0::total              130489498                       # Type of FU issued
system.cpu.iq.rate                           0.895986                       # Inst issue rate
system.cpu.iq.fu_busy_cnt                    25844067                       # FU busy when requested
system.cpu.iq.fu_busy_rate                   0.198055                       # FU busy rate (busy events/executed inst)
system.cpu.iq.int_inst_queue_reads          225591106                       # Number of integer instruction queue reads
system.cpu.iq.int_inst_queue_writes          40224689                       # Number of integer instruction queue writes
system.cpu.iq.int_inst_queue_wakeup_accesses     40219783                       # Number of integer instruction queue wakeup accesses
system.cpu.iq.fp_inst_queue_reads           206383568                       # Number of floating instruction queue reads
system.cpu.iq.fp_inst_queue_writes           90272211                       # Number of floating instruction queue writes
system.cpu.iq.fp_inst_queue_wakeup_accesses     90269552                       # Number of floating instruction queue wakeup accesses
system.cpu.iq.int_alu_accesses               40219846                       # Number of integer alu accesses
system.cpu.iq.fp_alu_accesses               116113699                       # Number of floating point alu accesses
system.cpu.iew.lsq.thread0.forwLoads                1                       # Number of loads that had data forwarded from stores
system.cpu.iew.lsq.thread0.invAddrLoads             0                       # Number of loads ignored due to an invalid address
system.cpu.iew.lsq.thread0.squashedLoads          772                       # Number of loads squashed
system.cpu.iew.lsq.thread0.ignoredResponses            0                       # Number of memory responses ignored because the instruction is squashed
system.cpu.iew.lsq.thread0.memOrderViolation           18                       # Number of memory ordering violations
system.cpu.iew.lsq.thread0.squashedStores          248                       # Number of stores squashed
system.cpu.iew.lsq.thread0.invAddrSwpfs             0                       # Number of software prefetches ignored due to an invalid address
system.cpu.iew.lsq.thread0.blockedLoads             0                       # Number of blocked loads due to partial load-store forwarding
system.cpu.iew.lsq.thread0.rescheduledLoads            0                       # Number of loads that were rescheduled
system.cpu.iew.lsq.thread0.cacheBlocked             1                       # Number of times an access to memory failed due to the cache being blocked
system.cpu.iew.iewIdleCycles                        0                       # Number of cycles IEW is idle
system.cpu.iew.iewSquashCycles                   1124                       # Number of cycles IEW is squashing
system.cpu.iew.iewBlockCycles                49812716                       # Number of cycles IEW is blocking
system.cpu.iew.iewUnblockCycles                950669                       # Number of cycles IEW is unblocking
system.cpu.iew.iewDispatchedInsts           130492661                       # Number of instructions dispatched to IQ
system.cpu.iew.iewDispSquashedInsts                 8                       # Number of squashed instructions skipped by dispatch
system.cpu.iew.iewDispLoadInsts              26167680                       # Number of dispatched load instructions
system.cpu.iew.iewDispStoreInsts              5772392                       # Number of dispatched store instructions
system.cpu.iew.iewDispNonSpecInsts                  0                       # Number of dispatched non-speculative instructions
system.cpu.iew.iewIQFullEvents                 550144                       # Number of times the IQ has become full, causing a stall
system.cpu.iew.iewLSQFullEvents                     0                       # Number of times the LSQ has become full, causing a stall
system.cpu.iew.memOrderViolationEvents             18                       # Number of memory order violations
system.cpu.iew.predictedTakenIncorrect             14                       # Number of branches that were predicted taken incorrectly
system.cpu.iew.predictedNotTakenIncorrect          125                       # Number of branches that were predicted not taken incorrectly
system.cpu.iew.branchMispredicts                  139                       # Number of branch mispredicts detected at execute
system.cpu.iew.iewExecutedInsts             130489429                       # Number of executed instructions
system.cpu.iew.iewExecLoadInsts              26167069                       # Number of load instructions executed
system.cpu.iew.iewExecSquashedInsts                65                       # Number of squashed instructions skipped in execute
system.cpu.iew.exec_swp                             0                       # number of swp insts executed
system.cpu.iew.exec_nop                             0                       # number of nop insts executed
system.cpu.iew.exec_refs                     31939234                       # number of memory reference insts executed
system.cpu.iew.exec_branches                  3570720                       # Number of branches executed
system.cpu.iew.exec_stores                    5772165                       # Number of stores executed
system.cpu.iew.exec_rate                     0.895986                       # Inst execution rate
system.cpu.iew.wb_sent                      130489358                       # cumulative count of insts sent to commit
system.cpu.iew.wb_count                     130489335                       # cumulative count of insts written-back
system.cpu.iew.wb_producers                 114248688                       # num instructions producing a value
system.cpu.iew.wb_consumers                 202320908                       # num instructions consuming a value
system.cpu.iew.wb_penalized                         0                       # number of instrctions required to write to 'other' IQ
system.cpu.iew.wb_rate                       0.895985                       # insts written-back per cycle
system.cpu.iew.wb_fanout                     0.564690                       # average fanout of values written-back
system.cpu.iew.wb_penalized_rate                    0                       # fraction of instructions written-back that wrote to 'other' IQ
system.cpu.commit.commitSquashedInsts            4221                       # The number of squashed insts skipped by commit
system.cpu.commit.branchMispredicts               128                       # The number of times a branch was mispredicted
system.cpu.commit.committed_per_cycle::samples    145149418                       # Number of insts commited each cycle
system.cpu.commit.committed_per_cycle::mean     0.898993                       # Number of insts commited each cycle
system.cpu.commit.committed_per_cycle::stdev     1.408188                       # Number of insts commited each cycle
system.cpu.commit.committed_per_cycle::underflows            0      0.00%      0.00% # Number of insts commited each cycle
system.cpu.commit.committed_per_cycle::0     89692159     61.79%     61.79% # Number of insts commited each cycle
system.cpu.commit.committed_per_cycle::1     23187837     15.98%     77.77% # Number of insts commited each cycle
system.cpu.commit.committed_per_cycle::2      9040128      6.23%     84.00% # Number of insts commited each cycle
system.cpu.commit.committed_per_cycle::3      3696914      2.55%     86.54% # Number of insts commited each cycle
system.cpu.commit.committed_per_cycle::4     19532380     13.46%    100.00% # Number of insts commited each cycle
system.cpu.commit.committed_per_cycle::overflows            0      0.00%    100.00% # Number of insts commited each cycle
system.cpu.commit.committed_per_cycle::min_value            0                       # Number of insts commited each cycle
system.cpu.commit.committed_per_cycle::max_value            4                       # Number of insts commited each cycle
system.cpu.commit.committed_per_cycle::total    145149418                       # Number of insts commited each cycle
system.cpu.commit.committedInsts            100000000                       # Number of instructions committed
system.cpu.commit.committedOps              130488355                       # Number of ops (including micro ops) committed
system.cpu.commit.swp_count                         0                       # Number of s/w prefetches committed
system.cpu.commit.refs                       31939032                       # Number of memory references committed
system.cpu.commit.loads                      26166894                       # Number of loads committed
system.cpu.commit.membars                           0                       # Number of memory barriers committed
system.cpu.commit.branches                    3570673                       # Number of branches committed
system.cpu.commit.fp_insts                   90269429                       # Number of committed floating point instructions.
system.cpu.commit.int_insts                  70176440                       # Number of committed integer instructions.
system.cpu.commit.function_calls                    0                       # Number of function calls committed.
system.cpu.commit.bw_lim_events              19532380                       # number cycles where commit BW limit reached
system.cpu.commit.bw_limited                        0                       # number of insts not committed due to BW limits
system.cpu.rob.rob_reads                    256109614                       # The number of ROB reads
system.cpu.rob.rob_writes                   260986366                       # The number of ROB writes
system.cpu.timesIdled                           12170                       # Number of times that the entire CPU went into an idle state and unscheduled itself
system.cpu.idleCycles                          487302                       # Total number of cycles that the CPU has spent unscheduled due to idling
system.cpu.committedInsts                   100000000                       # Number of Instructions Simulated
system.cpu.committedOps                     130488355                       # Number of Ops (including micro ops) Simulated
system.cpu.committedInsts_total             100000000                       # Number of Instructions Simulated
system.cpu.cpi                               1.456378                       # CPI: Cycles Per Instruction
system.cpu.cpi_total                         1.456378                       # CPI: Total CPI of All Threads
system.cpu.ipc                               0.686635                       # IPC: Instructions Per Cycle
system.cpu.ipc_total                         0.686635                       # IPC: Total IPC of All Threads
system.cpu.int_regfile_reads                122974723                       # number of integer regfile reads
system.cpu.int_regfile_writes                63205746                       # number of integer regfile writes
system.cpu.fp_regfile_reads                 167062499                       # number of floating regfile reads
system.cpu.fp_regfile_writes                 84952781                       # number of floating regfile writes
system.cpu.misc_regfile_reads                39451480                       # number of misc regfile reads
system.cpu.itb_walker_cache.replacements            0                       # number of replacements
system.cpu.itb_walker_cache.tagsinuse               0                       # Cycle average of tags in use
system.cpu.itb_walker_cache.total_refs              0                       # Total number of references to valid blocks.
system.cpu.itb_walker_cache.sampled_refs            0                       # Sample count of references to valid blocks.
system.cpu.itb_walker_cache.avg_refs              nan                       # Average number of references to valid blocks.
system.cpu.itb_walker_cache.warmup_cycle            0                       # Cycle when the warmup percentage was hit.
system.cpu.itb_walker_cache.blocked_cycles::no_mshrs            0                       # number of cycles access was blocked
system.cpu.itb_walker_cache.blocked_cycles::no_targets            0                       # number of cycles access was blocked
system.cpu.itb_walker_cache.blocked::no_mshrs            0                       # number of cycles access was blocked
system.cpu.itb_walker_cache.blocked::no_targets            0                       # number of cycles access was blocked
system.cpu.itb_walker_cache.avg_blocked_cycles::no_mshrs          nan                       # average number of cycles each access was blocked
system.cpu.itb_walker_cache.avg_blocked_cycles::no_targets          nan                       # average number of cycles each access was blocked
system.cpu.itb_walker_cache.fast_writes             0                       # number of fast writes performed
system.cpu.itb_walker_cache.cache_copies            0                       # number of cache copies performed
system.cpu.itb_walker_cache.no_allocate_misses            0                       # Number of misses that were no-allocate
system.cpu.dtb_walker_cache.replacements            0                       # number of replacements
system.cpu.dtb_walker_cache.tagsinuse               0                       # Cycle average of tags in use
system.cpu.dtb_walker_cache.total_refs              0                       # Total number of references to valid blocks.
system.cpu.dtb_walker_cache.sampled_refs            0                       # Sample count of references to valid blocks.
system.cpu.dtb_walker_cache.avg_refs              nan                       # Average number of references to valid blocks.
system.cpu.dtb_walker_cache.warmup_cycle            0                       # Cycle when the warmup percentage was hit.
system.cpu.dtb_walker_cache.blocked_cycles::no_mshrs            0                       # number of cycles access was blocked
system.cpu.dtb_walker_cache.blocked_cycles::no_targets            0                       # number of cycles access was blocked
system.cpu.dtb_walker_cache.blocked::no_mshrs            0                       # number of cycles access was blocked
system.cpu.dtb_walker_cache.blocked::no_targets            0                       # number of cycles access was blocked
system.cpu.dtb_walker_cache.avg_blocked_cycles::no_mshrs          nan                       # average number of cycles each access was blocked
system.cpu.dtb_walker_cache.avg_blocked_cycles::no_targets          nan                       # average number of cycles each access was blocked
system.cpu.dtb_walker_cache.fast_writes             0                       # number of fast writes performed
system.cpu.dtb_walker_cache.cache_copies            0                       # number of cache copies performed
system.cpu.dtb_walker_cache.no_allocate_misses            0                       # Number of misses that were no-allocate
system.cpu.icache.replacements                      0                       # number of replacements
system.cpu.icache.tagsinuse                 29.822737                       # Cycle average of tags in use
system.cpu.icache.total_refs                  8940091                       # Total number of references to valid blocks.
system.cpu.icache.sampled_refs                     43                       # Sample count of references to valid blocks.
system.cpu.icache.avg_refs               207909.093023                       # Average number of references to valid blocks.
system.cpu.icache.warmup_cycle                      0                       # Cycle when the warmup percentage was hit.
system.cpu.icache.occ_blocks::cpu.inst      29.822737                       # Average occupied blocks per requestor
system.cpu.icache.occ_percent::cpu.inst      0.058248                       # Average percentage of cache occupancy
system.cpu.icache.occ_percent::total         0.058248                       # Average percentage of cache occupancy
system.cpu.icache.ReadReq_hits::cpu.inst      8940091                       # number of ReadReq hits
system.cpu.icache.ReadReq_hits::total         8940091                       # number of ReadReq hits
system.cpu.icache.demand_hits::cpu.inst       8940091                       # number of demand (read+write) hits
system.cpu.icache.demand_hits::total          8940091                       # number of demand (read+write) hits
system.cpu.icache.overall_hits::cpu.inst      8940091                       # number of overall hits
system.cpu.icache.overall_hits::total         8940091                       # number of overall hits
system.cpu.icache.ReadReq_misses::cpu.inst           48                       # number of ReadReq misses
system.cpu.icache.ReadReq_misses::total            48                       # number of ReadReq misses
system.cpu.icache.demand_misses::cpu.inst           48                       # number of demand (read+write) misses
system.cpu.icache.demand_misses::total             48                       # number of demand (read+write) misses
system.cpu.icache.overall_misses::cpu.inst           48                       # number of overall misses
system.cpu.icache.overall_misses::total            48                       # number of overall misses
system.cpu.icache.ReadReq_miss_latency::cpu.inst      2641000                       # number of ReadReq miss cycles
system.cpu.icache.ReadReq_miss_latency::total      2641000                       # number of ReadReq miss cycles
system.cpu.icache.demand_miss_latency::cpu.inst      2641000                       # number of demand (read+write) miss cycles
system.cpu.icache.demand_miss_latency::total      2641000                       # number of demand (read+write) miss cycles
system.cpu.icache.overall_miss_latency::cpu.inst      2641000                       # number of overall miss cycles
system.cpu.icache.overall_miss_latency::total      2641000                       # number of overall miss cycles
system.cpu.icache.ReadReq_accesses::cpu.inst      8940139                       # number of ReadReq accesses(hits+misses)
system.cpu.icache.ReadReq_accesses::total      8940139                       # number of ReadReq accesses(hits+misses)
system.cpu.icache.demand_accesses::cpu.inst      8940139                       # number of demand (read+write) accesses
system.cpu.icache.demand_accesses::total      8940139                       # number of demand (read+write) accesses
system.cpu.icache.overall_accesses::cpu.inst      8940139                       # number of overall (read+write) accesses
system.cpu.icache.overall_accesses::total      8940139                       # number of overall (read+write) accesses
system.cpu.icache.ReadReq_miss_rate::cpu.inst     0.000005                       # miss rate for ReadReq accesses
system.cpu.icache.ReadReq_miss_rate::total     0.000005                       # miss rate for ReadReq accesses
system.cpu.icache.demand_miss_rate::cpu.inst     0.000005                       # miss rate for demand accesses
system.cpu.icache.demand_miss_rate::total     0.000005                       # miss rate for demand accesses
system.cpu.icache.overall_miss_rate::cpu.inst     0.000005                       # miss rate for overall accesses
system.cpu.icache.overall_miss_rate::total     0.000005                       # miss rate for overall accesses
system.cpu.icache.ReadReq_avg_miss_latency::cpu.inst 55020.833333                       # average ReadReq miss latency
system.cpu.icache.ReadReq_avg_miss_latency::total 55020.833333                       # average ReadReq miss latency
system.cpu.icache.demand_avg_miss_latency::cpu.inst 55020.833333                       # average overall miss latency
system.cpu.icache.demand_avg_miss_latency::total 55020.833333                       # average overall miss latency
system.cpu.icache.overall_avg_miss_latency::cpu.inst 55020.833333                       # average overall miss latency
system.cpu.icache.overall_avg_miss_latency::total 55020.833333                       # average overall miss latency
system.cpu.icache.blocked_cycles::no_mshrs            0                       # number of cycles access was blocked
system.cpu.icache.blocked_cycles::no_targets            0                       # number of cycles access was blocked
system.cpu.icache.blocked::no_mshrs                 0                       # number of cycles access was blocked
system.cpu.icache.blocked::no_targets               0                       # number of cycles access was blocked
system.cpu.icache.avg_blocked_cycles::no_mshrs          nan                       # average number of cycles each access was blocked
system.cpu.icache.avg_blocked_cycles::no_targets          nan                       # average number of cycles each access was blocked
system.cpu.icache.fast_writes                       0                       # number of fast writes performed
system.cpu.icache.cache_copies                      0                       # number of cache copies performed
system.cpu.icache.ReadReq_mshr_hits::cpu.inst            5                       # number of ReadReq MSHR hits
system.cpu.icache.ReadReq_mshr_hits::total            5                       # number of ReadReq MSHR hits
system.cpu.icache.demand_mshr_hits::cpu.inst            5                       # number of demand (read+write) MSHR hits
system.cpu.icache.demand_mshr_hits::total            5                       # number of demand (read+write) MSHR hits
system.cpu.icache.overall_mshr_hits::cpu.inst            5                       # number of overall MSHR hits
system.cpu.icache.overall_mshr_hits::total            5                       # number of overall MSHR hits
system.cpu.icache.ReadReq_mshr_misses::cpu.inst           43                       # number of ReadReq MSHR misses
system.cpu.icache.ReadReq_mshr_misses::total           43                       # number of ReadReq MSHR misses
system.cpu.icache.demand_mshr_misses::cpu.inst           43                       # number of demand (read+write) MSHR misses
system.cpu.icache.demand_mshr_misses::total           43                       # number of demand (read+write) MSHR misses
system.cpu.icache.overall_mshr_misses::cpu.inst           43                       # number of overall MSHR misses
system.cpu.icache.overall_mshr_misses::total           43                       # number of overall MSHR misses
system.cpu.icache.ReadReq_mshr_miss_latency::cpu.inst      2415500                       # number of ReadReq MSHR miss cycles
system.cpu.icache.ReadReq_mshr_miss_latency::total      2415500                       # number of ReadReq MSHR miss cycles
system.cpu.icache.demand_mshr_miss_latency::cpu.inst      2415500                       # number of demand (read+write) MSHR miss cycles
system.cpu.icache.demand_mshr_miss_latency::total      2415500                       # number of demand (read+write) MSHR miss cycles
system.cpu.icache.overall_mshr_miss_latency::cpu.inst      2415500                       # number of overall MSHR miss cycles
system.cpu.icache.overall_mshr_miss_latency::total      2415500                       # number of overall MSHR miss cycles
system.cpu.icache.ReadReq_mshr_miss_rate::cpu.inst     0.000005                       # mshr miss rate for ReadReq accesses
system.cpu.icache.ReadReq_mshr_miss_rate::total     0.000005                       # mshr miss rate for ReadReq accesses
system.cpu.icache.demand_mshr_miss_rate::cpu.inst     0.000005                       # mshr miss rate for demand accesses
system.cpu.icache.demand_mshr_miss_rate::total     0.000005                       # mshr miss rate for demand accesses
system.cpu.icache.overall_mshr_miss_rate::cpu.inst     0.000005                       # mshr miss rate for overall accesses
system.cpu.icache.overall_mshr_miss_rate::total     0.000005                       # mshr miss rate for overall accesses
system.cpu.icache.ReadReq_avg_mshr_miss_latency::cpu.inst 56174.418605                       # average ReadReq mshr miss latency
system.cpu.icache.ReadReq_avg_mshr_miss_latency::total 56174.418605                       # average ReadReq mshr miss latency
system.cpu.icache.demand_avg_mshr_miss_latency::cpu.inst 56174.418605                       # average overall mshr miss latency
system.cpu.icache.demand_avg_mshr_miss_latency::total 56174.418605                       # average overall mshr miss latency
system.cpu.icache.overall_avg_mshr_miss_latency::cpu.inst 56174.418605                       # average overall mshr miss latency
system.cpu.icache.overall_avg_mshr_miss_latency::total 56174.418605                       # average overall mshr miss latency
system.cpu.icache.no_allocate_misses                0                       # Number of misses that were no-allocate
system.cpu.dcache.replacements                1557564                       # number of replacements
system.cpu.dcache.tagsinuse                511.643304                       # Cycle average of tags in use
system.cpu.dcache.total_refs                 28103637                       # Total number of references to valid blocks.
system.cpu.dcache.sampled_refs                1558076                       # Sample count of references to valid blocks.
system.cpu.dcache.avg_refs                  18.037398                       # Average number of references to valid blocks.
system.cpu.dcache.warmup_cycle           15513627285000                       # Cycle when the warmup percentage was hit.
system.cpu.dcache.occ_blocks::cpu.data     511.643304                       # Average occupied blocks per requestor
system.cpu.dcache.occ_percent::cpu.data      0.999303                       # Average percentage of cache occupancy
system.cpu.dcache.occ_percent::total         0.999303                       # Average percentage of cache occupancy
system.cpu.dcache.ReadReq_hits::cpu.data     22569574                       # number of ReadReq hits
system.cpu.dcache.ReadReq_hits::total        22569574                       # number of ReadReq hits
system.cpu.dcache.WriteReq_hits::cpu.data      5534063                       # number of WriteReq hits
system.cpu.dcache.WriteReq_hits::total        5534063                       # number of WriteReq hits
system.cpu.dcache.demand_hits::cpu.data      28103637                       # number of demand (read+write) hits
system.cpu.dcache.demand_hits::total         28103637                       # number of demand (read+write) hits
system.cpu.dcache.overall_hits::cpu.data     28103637                       # number of overall hits
system.cpu.dcache.overall_hits::total        28103637                       # number of overall hits
system.cpu.dcache.ReadReq_misses::cpu.data      3597493                       # number of ReadReq misses
system.cpu.dcache.ReadReq_misses::total       3597493                       # number of ReadReq misses
system.cpu.dcache.WriteReq_misses::cpu.data       238074                       # number of WriteReq misses
system.cpu.dcache.WriteReq_misses::total       238074                       # number of WriteReq misses
system.cpu.dcache.demand_misses::cpu.data      3835567                       # number of demand (read+write) misses
system.cpu.dcache.demand_misses::total        3835567                       # number of demand (read+write) misses
system.cpu.dcache.overall_misses::cpu.data      3835567                       # number of overall misses
system.cpu.dcache.overall_misses::total       3835567                       # number of overall misses
system.cpu.dcache.ReadReq_miss_latency::cpu.data 166836903000                       # number of ReadReq miss cycles
system.cpu.dcache.ReadReq_miss_latency::total 166836903000                       # number of ReadReq miss cycles
system.cpu.dcache.WriteReq_miss_latency::cpu.data  13601787000                       # number of WriteReq miss cycles
system.cpu.dcache.WriteReq_miss_latency::total  13601787000                       # number of WriteReq miss cycles
system.cpu.dcache.demand_miss_latency::cpu.data 180438690000                       # number of demand (read+write) miss cycles
system.cpu.dcache.demand_miss_latency::total 180438690000                       # number of demand (read+write) miss cycles
system.cpu.dcache.overall_miss_latency::cpu.data 180438690000                       # number of overall miss cycles
system.cpu.dcache.overall_miss_latency::total 180438690000                       # number of overall miss cycles
system.cpu.dcache.ReadReq_accesses::cpu.data     26167067                       # number of ReadReq accesses(hits+misses)
system.cpu.dcache.ReadReq_accesses::total     26167067                       # number of ReadReq accesses(hits+misses)
system.cpu.dcache.WriteReq_accesses::cpu.data      5772137                       # number of WriteReq accesses(hits+misses)
system.cpu.dcache.WriteReq_accesses::total      5772137                       # number of WriteReq accesses(hits+misses)
system.cpu.dcache.demand_accesses::cpu.data     31939204                       # number of demand (read+write) accesses
system.cpu.dcache.demand_accesses::total     31939204                       # number of demand (read+write) accesses
system.cpu.dcache.overall_accesses::cpu.data     31939204                       # number of overall (read+write) accesses
system.cpu.dcache.overall_accesses::total     31939204                       # number of overall (read+write) accesses
system.cpu.dcache.ReadReq_miss_rate::cpu.data     0.137482                       # miss rate for ReadReq accesses
system.cpu.dcache.ReadReq_miss_rate::total     0.137482                       # miss rate for ReadReq accesses
system.cpu.dcache.WriteReq_miss_rate::cpu.data     0.041245                       # miss rate for WriteReq accesses
system.cpu.dcache.WriteReq_miss_rate::total     0.041245                       # miss rate for WriteReq accesses
system.cpu.dcache.demand_miss_rate::cpu.data     0.120090                       # miss rate for demand accesses
system.cpu.dcache.demand_miss_rate::total     0.120090                       # miss rate for demand accesses
system.cpu.dcache.overall_miss_rate::cpu.data     0.120090                       # miss rate for overall accesses
system.cpu.dcache.overall_miss_rate::total     0.120090                       # miss rate for overall accesses
system.cpu.dcache.ReadReq_avg_miss_latency::cpu.data 46375.879814                       # average ReadReq miss latency
system.cpu.dcache.ReadReq_avg_miss_latency::total 46375.879814                       # average ReadReq miss latency
system.cpu.dcache.WriteReq_avg_miss_latency::cpu.data 57132.601628                       # average WriteReq miss latency
system.cpu.dcache.WriteReq_avg_miss_latency::total 57132.601628                       # average WriteReq miss latency
system.cpu.dcache.demand_avg_miss_latency::cpu.data 47043.550536                       # average overall miss latency
system.cpu.dcache.demand_avg_miss_latency::total 47043.550536                       # average overall miss latency
system.cpu.dcache.overall_avg_miss_latency::cpu.data 47043.550536                       # average overall miss latency
system.cpu.dcache.overall_avg_miss_latency::total 47043.550536                       # average overall miss latency
system.cpu.dcache.blocked_cycles::no_mshrs           58                       # number of cycles access was blocked
system.cpu.dcache.blocked_cycles::no_targets            0                       # number of cycles access was blocked
system.cpu.dcache.blocked::no_mshrs                 2                       # number of cycles access was blocked
system.cpu.dcache.blocked::no_targets               0                       # number of cycles access was blocked
system.cpu.dcache.avg_blocked_cycles::no_mshrs           29                       # average number of cycles each access was blocked
system.cpu.dcache.avg_blocked_cycles::no_targets          nan                       # average number of cycles each access was blocked
system.cpu.dcache.fast_writes                       0                       # number of fast writes performed
system.cpu.dcache.cache_copies                      0                       # number of cache copies performed
system.cpu.dcache.writebacks::writebacks       542391                       # number of writebacks
system.cpu.dcache.writebacks::total            542391                       # number of writebacks
system.cpu.dcache.ReadReq_mshr_hits::cpu.data      2277491                       # number of ReadReq MSHR hits
system.cpu.dcache.ReadReq_mshr_hits::total      2277491                       # number of ReadReq MSHR hits
system.cpu.dcache.demand_mshr_hits::cpu.data      2277491                       # number of demand (read+write) MSHR hits
system.cpu.dcache.demand_mshr_hits::total      2277491                       # number of demand (read+write) MSHR hits
system.cpu.dcache.overall_mshr_hits::cpu.data      2277491                       # number of overall MSHR hits
system.cpu.dcache.overall_mshr_hits::total      2277491                       # number of overall MSHR hits
system.cpu.dcache.ReadReq_mshr_misses::cpu.data      1320002                       # number of ReadReq MSHR misses
system.cpu.dcache.ReadReq_mshr_misses::total      1320002                       # number of ReadReq MSHR misses
system.cpu.dcache.WriteReq_mshr_misses::cpu.data       238074                       # number of WriteReq MSHR misses
system.cpu.dcache.WriteReq_mshr_misses::total       238074                       # number of WriteReq MSHR misses
system.cpu.dcache.demand_mshr_misses::cpu.data      1558076                       # number of demand (read+write) MSHR misses
system.cpu.dcache.demand_mshr_misses::total      1558076                       # number of demand (read+write) MSHR misses
system.cpu.dcache.overall_mshr_misses::cpu.data      1558076                       # number of overall MSHR misses
system.cpu.dcache.overall_mshr_misses::total      1558076                       # number of overall MSHR misses
system.cpu.dcache.ReadReq_mshr_miss_latency::cpu.data  72331477500                       # number of ReadReq MSHR miss cycles
system.cpu.dcache.ReadReq_mshr_miss_latency::total  72331477500                       # number of ReadReq MSHR miss cycles
system.cpu.dcache.WriteReq_mshr_miss_latency::cpu.data  13125639000                       # number of WriteReq MSHR miss cycles
system.cpu.dcache.WriteReq_mshr_miss_latency::total  13125639000                       # number of WriteReq MSHR miss cycles
system.cpu.dcache.demand_mshr_miss_latency::cpu.data  85457116500                       # number of demand (read+write) MSHR miss cycles
system.cpu.dcache.demand_mshr_miss_latency::total  85457116500                       # number of demand (read+write) MSHR miss cycles
system.cpu.dcache.overall_mshr_miss_latency::cpu.data  85457116500                       # number of overall MSHR miss cycles
system.cpu.dcache.overall_mshr_miss_latency::total  85457116500                       # number of overall MSHR miss cycles
system.cpu.dcache.ReadReq_mshr_miss_rate::cpu.data     0.050445                       # mshr miss rate for ReadReq accesses
system.cpu.dcache.ReadReq_mshr_miss_rate::total     0.050445                       # mshr miss rate for ReadReq accesses
system.cpu.dcache.WriteReq_mshr_miss_rate::cpu.data     0.041245                       # mshr miss rate for WriteReq accesses
system.cpu.dcache.WriteReq_mshr_miss_rate::total     0.041245                       # mshr miss rate for WriteReq accesses
system.cpu.dcache.demand_mshr_miss_rate::cpu.data     0.048783                       # mshr miss rate for demand accesses
system.cpu.dcache.demand_mshr_miss_rate::total     0.048783                       # mshr miss rate for demand accesses
system.cpu.dcache.overall_mshr_miss_rate::cpu.data     0.048783                       # mshr miss rate for overall accesses
system.cpu.dcache.overall_mshr_miss_rate::total     0.048783                       # mshr miss rate for overall accesses
system.cpu.dcache.ReadReq_avg_mshr_miss_latency::cpu.data 54796.490839                       # average ReadReq mshr miss latency
system.cpu.dcache.ReadReq_avg_mshr_miss_latency::total 54796.490839                       # average ReadReq mshr miss latency
system.cpu.dcache.WriteReq_avg_mshr_miss_latency::cpu.data 55132.601628                       # average WriteReq mshr miss latency
system.cpu.dcache.WriteReq_avg_mshr_miss_latency::total 55132.601628                       # average WriteReq mshr miss latency
system.cpu.dcache.demand_avg_mshr_miss_latency::cpu.data 54847.848565                       # average overall mshr miss latency
system.cpu.dcache.demand_avg_mshr_miss_latency::total 54847.848565                       # average overall mshr miss latency
system.cpu.dcache.overall_avg_mshr_miss_latency::cpu.data 54847.848565                       # average overall mshr miss latency
system.cpu.dcache.overall_avg_mshr_miss_latency::total 54847.848565                       # average overall mshr miss latency
system.cpu.dcache.no_allocate_misses                0                       # Number of misses that were no-allocate

---------- End Simulation Statistics   ----------
