
---------- Begin Simulation Statistics ----------
sim_seconds                                  0.002213                       # Number of seconds simulated
sim_ticks                                  2213345500                       # Number of ticks simulated
final_tick                                 2213345500                       # Number of ticks from beginning of simulation (restored from checkpoints and never reset)
sim_freq                                 1000000000000                       # Frequency of simulated ticks
host_inst_rate                                  54153                       # Simulator instruction rate (inst/s)
host_op_rate                                   114905                       # Simulator op (including micro ops) rate (op/s)
host_tick_rate                               32009719                       # Simulator tick rate (ticks/s)
host_mem_usage                                2212196                       # Number of bytes of host memory used
host_seconds                                    69.15                       # Real time elapsed on the host
sim_insts                                     3744478                       # Number of instructions simulated
sim_ops                                       7945257                       # Number of ops (including micro ops) simulated
system.physmem.bytes_read::cpu.inst             31552                       # Number of bytes read from this memory
system.physmem.bytes_read::cpu.data             61376                       # Number of bytes read from this memory
system.physmem.bytes_read::total                92928                       # Number of bytes read from this memory
system.physmem.bytes_inst_read::cpu.inst        31552                       # Number of instructions bytes read from this memory
system.physmem.bytes_inst_read::total           31552                       # Number of instructions bytes read from this memory
system.physmem.num_reads::cpu.inst                493                       # Number of read requests responded to by this memory
system.physmem.num_reads::cpu.data                959                       # Number of read requests responded to by this memory
system.physmem.num_reads::total                  1452                       # Number of read requests responded to by this memory
system.physmem.bw_read::cpu.inst             14255343                       # Total read bandwidth from this memory (bytes/s)
system.physmem.bw_read::cpu.data             27729968                       # Total read bandwidth from this memory (bytes/s)
system.physmem.bw_read::total                41985311                       # Total read bandwidth from this memory (bytes/s)
system.physmem.bw_inst_read::cpu.inst        14255343                       # Instruction read bandwidth from this memory (bytes/s)
system.physmem.bw_inst_read::total           14255343                       # Instruction read bandwidth from this memory (bytes/s)
system.physmem.bw_total::cpu.inst            14255343                       # Total bandwidth to/from this memory (bytes/s)
system.physmem.bw_total::cpu.data            27729968                       # Total bandwidth to/from this memory (bytes/s)
system.physmem.bw_total::total               41985311                       # Total bandwidth to/from this memory (bytes/s)
system.l2.replacements                              0                       # number of replacements
system.l2.tagsinuse                       1144.611032                       # Cycle average of tags in use
system.l2.total_refs                             6537                       # Total number of references to valid blocks.
system.l2.sampled_refs                           1235                       # Sample count of references to valid blocks.
system.l2.avg_refs                           5.293117                       # Average number of references to valid blocks.
system.l2.warmup_cycle                              0                       # Cycle when the warmup percentage was hit.
system.l2.occ_blocks::writebacks           215.866280                       # Average occupied blocks per requestor
system.l2.occ_blocks::cpu.inst             440.923520                       # Average occupied blocks per requestor
system.l2.occ_blocks::cpu.data             487.821232                       # Average occupied blocks per requestor
system.l2.occ_percent::writebacks            0.052702                       # Average percentage of cache occupancy
system.l2.occ_percent::cpu.inst              0.107647                       # Average percentage of cache occupancy
system.l2.occ_percent::cpu.data              0.119097                       # Average percentage of cache occupancy
system.l2.occ_percent::total                 0.279446                       # Average percentage of cache occupancy
system.l2.ReadReq_hits::cpu.inst                 6141                       # number of ReadReq hits
system.l2.ReadReq_hits::cpu.data                  296                       # number of ReadReq hits
system.l2.ReadReq_hits::total                    6437                       # number of ReadReq hits
system.l2.Writeback_hits::writebacks              339                       # number of Writeback hits
system.l2.Writeback_hits::total                   339                       # number of Writeback hits
system.l2.ReadExReq_hits::cpu.data                  8                       # number of ReadExReq hits
system.l2.ReadExReq_hits::total                     8                       # number of ReadExReq hits
system.l2.demand_hits::cpu.inst                  6141                       # number of demand (read+write) hits
system.l2.demand_hits::cpu.data                   304                       # number of demand (read+write) hits
system.l2.demand_hits::total                     6445                       # number of demand (read+write) hits
system.l2.overall_hits::cpu.inst                 6141                       # number of overall hits
system.l2.overall_hits::cpu.data                  304                       # number of overall hits
system.l2.overall_hits::total                    6445                       # number of overall hits
system.l2.ReadReq_misses::cpu.inst                493                       # number of ReadReq misses
system.l2.ReadReq_misses::cpu.data                513                       # number of ReadReq misses
system.l2.ReadReq_misses::total                  1006                       # number of ReadReq misses
system.l2.ReadExReq_misses::cpu.data              446                       # number of ReadExReq misses
system.l2.ReadExReq_misses::total                 446                       # number of ReadExReq misses
system.l2.demand_misses::cpu.inst                 493                       # number of demand (read+write) misses
system.l2.demand_misses::cpu.data                 959                       # number of demand (read+write) misses
system.l2.demand_misses::total                   1452                       # number of demand (read+write) misses
system.l2.overall_misses::cpu.inst                493                       # number of overall misses
system.l2.overall_misses::cpu.data                959                       # number of overall misses
system.l2.overall_misses::total                  1452                       # number of overall misses
system.l2.ReadReq_miss_latency::cpu.inst     26327000                       # number of ReadReq miss cycles
system.l2.ReadReq_miss_latency::cpu.data     28864500                       # number of ReadReq miss cycles
system.l2.ReadReq_miss_latency::total        55191500                       # number of ReadReq miss cycles
system.l2.ReadExReq_miss_latency::cpu.data     23482500                       # number of ReadExReq miss cycles
system.l2.ReadExReq_miss_latency::total      23482500                       # number of ReadExReq miss cycles
system.l2.demand_miss_latency::cpu.inst      26327000                       # number of demand (read+write) miss cycles
system.l2.demand_miss_latency::cpu.data      52347000                       # number of demand (read+write) miss cycles
system.l2.demand_miss_latency::total         78674000                       # number of demand (read+write) miss cycles
system.l2.overall_miss_latency::cpu.inst     26327000                       # number of overall miss cycles
system.l2.overall_miss_latency::cpu.data     52347000                       # number of overall miss cycles
system.l2.overall_miss_latency::total        78674000                       # number of overall miss cycles
system.l2.ReadReq_accesses::cpu.inst             6634                       # number of ReadReq accesses(hits+misses)
system.l2.ReadReq_accesses::cpu.data              809                       # number of ReadReq accesses(hits+misses)
system.l2.ReadReq_accesses::total                7443                       # number of ReadReq accesses(hits+misses)
system.l2.Writeback_accesses::writebacks          339                       # number of Writeback accesses(hits+misses)
system.l2.Writeback_accesses::total               339                       # number of Writeback accesses(hits+misses)
system.l2.ReadExReq_accesses::cpu.data            454                       # number of ReadExReq accesses(hits+misses)
system.l2.ReadExReq_accesses::total               454                       # number of ReadExReq accesses(hits+misses)
system.l2.demand_accesses::cpu.inst              6634                       # number of demand (read+write) accesses
system.l2.demand_accesses::cpu.data              1263                       # number of demand (read+write) accesses
system.l2.demand_accesses::total                 7897                       # number of demand (read+write) accesses
system.l2.overall_accesses::cpu.inst             6634                       # number of overall (read+write) accesses
system.l2.overall_accesses::cpu.data             1263                       # number of overall (read+write) accesses
system.l2.overall_accesses::total                7897                       # number of overall (read+write) accesses
system.l2.ReadReq_miss_rate::cpu.inst        0.074314                       # miss rate for ReadReq accesses
system.l2.ReadReq_miss_rate::cpu.data        0.634116                       # miss rate for ReadReq accesses
system.l2.ReadReq_miss_rate::total           0.135161                       # miss rate for ReadReq accesses
system.l2.ReadExReq_miss_rate::cpu.data      0.982379                       # miss rate for ReadExReq accesses
system.l2.ReadExReq_miss_rate::total         0.982379                       # miss rate for ReadExReq accesses
system.l2.demand_miss_rate::cpu.inst         0.074314                       # miss rate for demand accesses
system.l2.demand_miss_rate::cpu.data         0.759303                       # miss rate for demand accesses
system.l2.demand_miss_rate::total            0.183867                       # miss rate for demand accesses
system.l2.overall_miss_rate::cpu.inst        0.074314                       # miss rate for overall accesses
system.l2.overall_miss_rate::cpu.data        0.759303                       # miss rate for overall accesses
system.l2.overall_miss_rate::total           0.183867                       # miss rate for overall accesses
system.l2.ReadReq_avg_miss_latency::cpu.inst 53401.622718                       # average ReadReq miss latency
system.l2.ReadReq_avg_miss_latency::cpu.data 56266.081871                       # average ReadReq miss latency
system.l2.ReadReq_avg_miss_latency::total 54862.326044                       # average ReadReq miss latency
system.l2.ReadExReq_avg_miss_latency::cpu.data 52651.345291                       # average ReadExReq miss latency
system.l2.ReadExReq_avg_miss_latency::total 52651.345291                       # average ReadExReq miss latency
system.l2.demand_avg_miss_latency::cpu.inst 53401.622718                       # average overall miss latency
system.l2.demand_avg_miss_latency::cpu.data 54584.984359                       # average overall miss latency
system.l2.demand_avg_miss_latency::total 54183.195592                       # average overall miss latency
system.l2.overall_avg_miss_latency::cpu.inst 53401.622718                       # average overall miss latency
system.l2.overall_avg_miss_latency::cpu.data 54584.984359                       # average overall miss latency
system.l2.overall_avg_miss_latency::total 54183.195592                       # average overall miss latency
system.l2.blocked_cycles::no_mshrs                  0                       # number of cycles access was blocked
system.l2.blocked_cycles::no_targets                0                       # number of cycles access was blocked
system.l2.blocked::no_mshrs                         0                       # number of cycles access was blocked
system.l2.blocked::no_targets                       0                       # number of cycles access was blocked
system.l2.avg_blocked_cycles::no_mshrs            nan                       # average number of cycles each access was blocked
system.l2.avg_blocked_cycles::no_targets          nan                       # average number of cycles each access was blocked
system.l2.fast_writes                               0                       # number of fast writes performed
system.l2.cache_copies                              0                       # number of cache copies performed
system.l2.ReadReq_mshr_misses::cpu.inst           493                       # number of ReadReq MSHR misses
system.l2.ReadReq_mshr_misses::cpu.data           513                       # number of ReadReq MSHR misses
system.l2.ReadReq_mshr_misses::total             1006                       # number of ReadReq MSHR misses
system.l2.ReadExReq_mshr_misses::cpu.data          446                       # number of ReadExReq MSHR misses
system.l2.ReadExReq_mshr_misses::total            446                       # number of ReadExReq MSHR misses
system.l2.demand_mshr_misses::cpu.inst            493                       # number of demand (read+write) MSHR misses
system.l2.demand_mshr_misses::cpu.data            959                       # number of demand (read+write) MSHR misses
system.l2.demand_mshr_misses::total              1452                       # number of demand (read+write) MSHR misses
system.l2.overall_mshr_misses::cpu.inst           493                       # number of overall MSHR misses
system.l2.overall_mshr_misses::cpu.data           959                       # number of overall MSHR misses
system.l2.overall_mshr_misses::total             1452                       # number of overall MSHR misses
system.l2.ReadReq_mshr_miss_latency::cpu.inst     20331500                       # number of ReadReq MSHR miss cycles
system.l2.ReadReq_mshr_miss_latency::cpu.data     22669500                       # number of ReadReq MSHR miss cycles
system.l2.ReadReq_mshr_miss_latency::total     43001000                       # number of ReadReq MSHR miss cycles
system.l2.ReadExReq_mshr_miss_latency::cpu.data     18043500                       # number of ReadExReq MSHR miss cycles
system.l2.ReadExReq_mshr_miss_latency::total     18043500                       # number of ReadExReq MSHR miss cycles
system.l2.demand_mshr_miss_latency::cpu.inst     20331500                       # number of demand (read+write) MSHR miss cycles
system.l2.demand_mshr_miss_latency::cpu.data     40713000                       # number of demand (read+write) MSHR miss cycles
system.l2.demand_mshr_miss_latency::total     61044500                       # number of demand (read+write) MSHR miss cycles
system.l2.overall_mshr_miss_latency::cpu.inst     20331500                       # number of overall MSHR miss cycles
system.l2.overall_mshr_miss_latency::cpu.data     40713000                       # number of overall MSHR miss cycles
system.l2.overall_mshr_miss_latency::total     61044500                       # number of overall MSHR miss cycles
system.l2.ReadReq_mshr_miss_rate::cpu.inst     0.074314                       # mshr miss rate for ReadReq accesses
system.l2.ReadReq_mshr_miss_rate::cpu.data     0.634116                       # mshr miss rate for ReadReq accesses
system.l2.ReadReq_mshr_miss_rate::total      0.135161                       # mshr miss rate for ReadReq accesses
system.l2.ReadExReq_mshr_miss_rate::cpu.data     0.982379                       # mshr miss rate for ReadExReq accesses
system.l2.ReadExReq_mshr_miss_rate::total     0.982379                       # mshr miss rate for ReadExReq accesses
system.l2.demand_mshr_miss_rate::cpu.inst     0.074314                       # mshr miss rate for demand accesses
system.l2.demand_mshr_miss_rate::cpu.data     0.759303                       # mshr miss rate for demand accesses
system.l2.demand_mshr_miss_rate::total       0.183867                       # mshr miss rate for demand accesses
system.l2.overall_mshr_miss_rate::cpu.inst     0.074314                       # mshr miss rate for overall accesses
system.l2.overall_mshr_miss_rate::cpu.data     0.759303                       # mshr miss rate for overall accesses
system.l2.overall_mshr_miss_rate::total      0.183867                       # mshr miss rate for overall accesses
system.l2.ReadReq_avg_mshr_miss_latency::cpu.inst 41240.365112                       # average ReadReq mshr miss latency
system.l2.ReadReq_avg_mshr_miss_latency::cpu.data 44190.058480                       # average ReadReq mshr miss latency
system.l2.ReadReq_avg_mshr_miss_latency::total 42744.532803                       # average ReadReq mshr miss latency
system.l2.ReadExReq_avg_mshr_miss_latency::cpu.data 40456.278027                       # average ReadExReq mshr miss latency
system.l2.ReadExReq_avg_mshr_miss_latency::total 40456.278027                       # average ReadExReq mshr miss latency
system.l2.demand_avg_mshr_miss_latency::cpu.inst 41240.365112                       # average overall mshr miss latency
system.l2.demand_avg_mshr_miss_latency::cpu.data 42453.597497                       # average overall mshr miss latency
system.l2.demand_avg_mshr_miss_latency::total 42041.666667                       # average overall mshr miss latency
system.l2.overall_avg_mshr_miss_latency::cpu.inst 41240.365112                       # average overall mshr miss latency
system.l2.overall_avg_mshr_miss_latency::cpu.data 42453.597497                       # average overall mshr miss latency
system.l2.overall_avg_mshr_miss_latency::total 42041.666667                       # average overall mshr miss latency
system.l2.no_allocate_misses                        0                       # Number of misses that were no-allocate
system.cpu.branchPred.lookups                 1532335                       # Number of BP lookups
system.cpu.branchPred.condPredicted           1532335                       # Number of conditional branches predicted
system.cpu.branchPred.condIncorrect            131930                       # Number of conditional branches incorrect
system.cpu.branchPred.BTBLookups               935373                       # Number of BTB lookups
system.cpu.branchPred.BTBHits                  888671                       # Number of BTB hits
system.cpu.branchPred.BTBCorrect                    0                       # Number of correct BTB predictions (this stat may not work properly.
system.cpu.branchPred.BTBHitPct             95.007125                       # BTB Hit Percentage
system.cpu.branchPred.usedRAS                       0                       # Number of times the RAS was used to get a target.
system.cpu.branchPred.RASInCorrect                  0                       # Number of incorrect RAS predictions.
system.cpu.workload.num_syscalls                 1341                       # Number of system calls
system.cpu.numCycles                          4426692                       # number of cpu cycles simulated
system.cpu.numWorkItemsStarted                      0                       # number of work items this cpu started
system.cpu.numWorkItemsCompleted                    0                       # number of work items this cpu completed
system.cpu.fetch.icacheStallCycles            1127487                       # Number of cycles fetch is stalled on an Icache miss
system.cpu.fetch.Insts                        6540533                       # Number of instructions fetch has processed
system.cpu.fetch.Branches                     1532335                       # Number of branches that fetch encountered
system.cpu.fetch.predictedBranches             888671                       # Number of branches that fetch has predicted taken
system.cpu.fetch.Cycles                       2208449                       # Number of cycles fetch has run and was not squashing or blocked
system.cpu.fetch.SquashCycles                  559369                       # Number of cycles fetch has spent squashing
system.cpu.fetch.BlockedCycles                 633547                       # Number of cycles fetch has spent blocked
system.cpu.fetch.MiscStallCycles                   21                       # Number of cycles fetch has spent waiting on interrupts, or bad addresses, or out of MSHRs
system.cpu.fetch.PendingTrapStallCycles           286                       # Number of stall cycles due to pending traps
system.cpu.fetch.IcacheWaitRetryStallCycles           13                       # Number of stall cycles due to full MSHR
system.cpu.fetch.CacheLines                    966378                       # Number of cache lines fetched
system.cpu.fetch.IcacheSquashes                 14502                       # Number of outstanding Icache misses that were squashed
system.cpu.fetch.rateDist::samples            4397134                       # Number of instructions fetched each cycle (Total)
system.cpu.fetch.rateDist::mean              2.901678                       # Number of instructions fetched each cycle (Total)
system.cpu.fetch.rateDist::stdev             3.420594                       # Number of instructions fetched each cycle (Total)
system.cpu.fetch.rateDist::underflows               0      0.00%      0.00% # Number of instructions fetched each cycle (Total)
system.cpu.fetch.rateDist::0                  2220323     50.49%     50.49% # Number of instructions fetched each cycle (Total)
system.cpu.fetch.rateDist::1                   252838      5.75%     56.24% # Number of instructions fetched each cycle (Total)
system.cpu.fetch.rateDist::2                   112028      2.55%     58.79% # Number of instructions fetched each cycle (Total)
system.cpu.fetch.rateDist::3                    79603      1.81%     60.60% # Number of instructions fetched each cycle (Total)
system.cpu.fetch.rateDist::4                   193720      4.41%     65.01% # Number of instructions fetched each cycle (Total)
system.cpu.fetch.rateDist::5                    89945      2.05%     67.05% # Number of instructions fetched each cycle (Total)
system.cpu.fetch.rateDist::6                   275091      6.26%     73.31% # Number of instructions fetched each cycle (Total)
system.cpu.fetch.rateDist::7                   220474      5.01%     78.32% # Number of instructions fetched each cycle (Total)
system.cpu.fetch.rateDist::8                   953112     21.68%    100.00% # Number of instructions fetched each cycle (Total)
system.cpu.fetch.rateDist::overflows                0      0.00%    100.00% # Number of instructions fetched each cycle (Total)
system.cpu.fetch.rateDist::min_value                0                       # Number of instructions fetched each cycle (Total)
system.cpu.fetch.rateDist::max_value                8                       # Number of instructions fetched each cycle (Total)
system.cpu.fetch.rateDist::total              4397134                       # Number of instructions fetched each cycle (Total)
system.cpu.fetch.branchRate                  0.346158                       # Number of branch fetches per cycle
system.cpu.fetch.rate                        1.477522                       # Number of inst fetches per cycle
system.cpu.decode.IdleCycles                  1459316                       # Number of cycles decode is idle
system.cpu.decode.BlockedCycles                444071                       # Number of cycles decode is blocked
system.cpu.decode.RunCycles                   1888322                       # Number of cycles decode is running
system.cpu.decode.UnblockCycles                178094                       # Number of cycles decode is unblocking
system.cpu.decode.SquashCycles                 427331                       # Number of cycles decode is squashing
system.cpu.decode.DecodedInsts               11957041                       # Number of instructions handled by decode
system.cpu.rename.SquashCycles                 427331                       # Number of cycles rename is squashing
system.cpu.rename.IdleCycles                  1616932                       # Number of cycles rename is idle
system.cpu.rename.BlockCycles                  118569                       # Number of cycles rename is blocking
system.cpu.rename.serializeStallCycles          23139                       # count of cycles rename stalled for serializing inst
system.cpu.rename.RunCycles                   1909089                       # Number of cycles rename is running
system.cpu.rename.UnblockCycles                302074                       # Number of cycles rename is unblocking
system.cpu.rename.RenamedInsts               11748772                       # Number of instructions processed by rename
system.cpu.rename.ROBFullEvents                  1428                       # Number of times rename has blocked due to ROB full
system.cpu.rename.IQFullEvents                  62149                       # Number of times rename has blocked due to IQ full
system.cpu.rename.LSQFullEvents                173973                       # Number of times rename has blocked due to LSQ full
system.cpu.rename.RenamedOperands            13140544                       # Number of destination operands rename has renamed
system.cpu.rename.RenameLookups              29652939                       # Number of register rename lookups that rename has made
system.cpu.rename.int_rename_lookups         27528943                       # Number of integer rename lookups
system.cpu.rename.fp_rename_lookups           2123996                       # Number of floating rename lookups
system.cpu.rename.CommittedMaps               9277947                       # Number of HB maps that are committed
system.cpu.rename.UndoneMaps                  3862597                       # Number of HB maps that are undone due to squashing
system.cpu.rename.serializingInsts               1361                       # count of serializing insts renamed
system.cpu.rename.tempSerializingInsts           1360                       # count of temporary serializing insts renamed
system.cpu.rename.skidInsts                    950618                       # count of insts added to the skid buffer
system.cpu.memDep0.insertedLoads              1028210                       # Number of loads inserted to the mem dependence unit.
system.cpu.memDep0.insertedStores              977357                       # Number of stores inserted to the mem dependence unit.
system.cpu.memDep0.conflictingLoads             30641                       # Number of conflicting loads.
system.cpu.memDep0.conflictingStores            17157                       # Number of conflicting stores.
system.cpu.iq.iqInstsAdded                   10836837                       # Number of instructions added to the IQ (excludes non-spec)
system.cpu.iq.iqNonSpecInstsAdded                1409                       # Number of non-speculative instructions added to the IQ
system.cpu.iq.iqInstsIssued                   9686267                       # Number of instructions issued
system.cpu.iq.iqSquashedInstsIssued            264794                       # Number of squashed instructions issued
system.cpu.iq.iqSquashedInstsExamined         2857759                       # Number of squashed instructions iterated over during squash; mainly for profiling
system.cpu.iq.iqSquashedOperandsExamined      4924608                       # Number of squashed operands that are examined and possibly removed from graph
system.cpu.iq.iqSquashedNonSpecRemoved             67                       # Number of squashed non-spec instructions that were removed
system.cpu.iq.issued_per_cycle::samples       4397134                       # Number of insts issued each cycle
system.cpu.iq.issued_per_cycle::mean         2.202859                       # Number of insts issued each cycle
system.cpu.iq.issued_per_cycle::stdev        1.822825                       # Number of insts issued each cycle
system.cpu.iq.issued_per_cycle::underflows            0      0.00%      0.00% # Number of insts issued each cycle
system.cpu.iq.issued_per_cycle::0             1340224     30.48%     30.48% # Number of insts issued each cycle
system.cpu.iq.issued_per_cycle::1              440366     10.01%     40.49% # Number of insts issued each cycle
system.cpu.iq.issued_per_cycle::2              298485      6.79%     47.28% # Number of insts issued each cycle
system.cpu.iq.issued_per_cycle::3             1241611     28.24%     75.52% # Number of insts issued each cycle
system.cpu.iq.issued_per_cycle::4              597437     13.59%     89.11% # Number of insts issued each cycle
system.cpu.iq.issued_per_cycle::5              375294      8.53%     97.64% # Number of insts issued each cycle
system.cpu.iq.issued_per_cycle::6               68798      1.56%     99.21% # Number of insts issued each cycle
system.cpu.iq.issued_per_cycle::7               34260      0.78%     99.99% # Number of insts issued each cycle
system.cpu.iq.issued_per_cycle::8                 659      0.01%    100.00% # Number of insts issued each cycle
system.cpu.iq.issued_per_cycle::overflows            0      0.00%    100.00% # Number of insts issued each cycle
system.cpu.iq.issued_per_cycle::min_value            0                       # Number of insts issued each cycle
system.cpu.iq.issued_per_cycle::max_value            8                       # Number of insts issued each cycle
system.cpu.iq.issued_per_cycle::total         4397134                       # Number of insts issued each cycle
system.cpu.iq.fu_full::No_OpClass                   0      0.00%      0.00% # attempts to use FU when none available
system.cpu.iq.fu_full::IntAlu                 1393341     86.96%     86.96% # attempts to use FU when none available
system.cpu.iq.fu_full::IntMult                      0      0.00%     86.96% # attempts to use FU when none available
system.cpu.iq.fu_full::IntDiv                       0      0.00%     86.96% # attempts to use FU when none available
system.cpu.iq.fu_full::FloatAdd                174830     10.91%     97.87% # attempts to use FU when none available
system.cpu.iq.fu_full::FloatCmp                     0      0.00%     97.87% # attempts to use FU when none available
system.cpu.iq.fu_full::FloatCvt                     0      0.00%     97.87% # attempts to use FU when none available
system.cpu.iq.fu_full::FloatMult                    0      0.00%     97.87% # attempts to use FU when none available
system.cpu.iq.fu_full::FloatDiv                     0      0.00%     97.87% # attempts to use FU when none available
system.cpu.iq.fu_full::FloatSqrt                    0      0.00%     97.87% # attempts to use FU when none available
system.cpu.iq.fu_full::SimdAdd                      0      0.00%     97.87% # attempts to use FU when none available
system.cpu.iq.fu_full::SimdAddAcc                   0      0.00%     97.87% # attempts to use FU when none available
system.cpu.iq.fu_full::SimdAlu                      0      0.00%     97.87% # attempts to use FU when none available
system.cpu.iq.fu_full::SimdCmp                      0      0.00%     97.87% # attempts to use FU when none available
system.cpu.iq.fu_full::SimdCvt                      0      0.00%     97.87% # attempts to use FU when none available
system.cpu.iq.fu_full::SimdMisc                     0      0.00%     97.87% # attempts to use FU when none available
system.cpu.iq.fu_full::SimdMult                     0      0.00%     97.87% # attempts to use FU when none available
system.cpu.iq.fu_full::SimdMultAcc                  0      0.00%     97.87% # attempts to use FU when none available
system.cpu.iq.fu_full::SimdShift                    0      0.00%     97.87% # attempts to use FU when none available
system.cpu.iq.fu_full::SimdShiftAcc                 0      0.00%     97.87% # attempts to use FU when none available
system.cpu.iq.fu_full::SimdSqrt                     0      0.00%     97.87% # attempts to use FU when none available
system.cpu.iq.fu_full::SimdFloatAdd                 0      0.00%     97.87% # attempts to use FU when none available
system.cpu.iq.fu_full::SimdFloatAlu                 0      0.00%     97.87% # attempts to use FU when none available
system.cpu.iq.fu_full::SimdFloatCmp                 0      0.00%     97.87% # attempts to use FU when none available
system.cpu.iq.fu_full::SimdFloatCvt                 0      0.00%     97.87% # attempts to use FU when none available
system.cpu.iq.fu_full::SimdFloatDiv                 0      0.00%     97.87% # attempts to use FU when none available
system.cpu.iq.fu_full::SimdFloatMisc                0      0.00%     97.87% # attempts to use FU when none available
system.cpu.iq.fu_full::SimdFloatMult                0      0.00%     97.87% # attempts to use FU when none available
system.cpu.iq.fu_full::SimdFloatMultAcc             0      0.00%     97.87% # attempts to use FU when none available
system.cpu.iq.fu_full::SimdFloatSqrt                0      0.00%     97.87% # attempts to use FU when none available
system.cpu.iq.fu_full::MemRead                  15949      1.00%     98.87% # attempts to use FU when none available
system.cpu.iq.fu_full::MemWrite                 18156      1.13%    100.00% # attempts to use FU when none available
system.cpu.iq.fu_full::IprAccess                    0      0.00%    100.00% # attempts to use FU when none available
system.cpu.iq.fu_full::InstPrefetch                 0      0.00%    100.00% # attempts to use FU when none available
system.cpu.iq.FU_type_0::No_OpClass            217587      2.25%      2.25% # Type of FU issued
system.cpu.iq.FU_type_0::IntAlu               7335151     75.73%     77.97% # Type of FU issued
system.cpu.iq.FU_type_0::IntMult                    0      0.00%     77.97% # Type of FU issued
system.cpu.iq.FU_type_0::IntDiv                     0      0.00%     77.97% # Type of FU issued
system.cpu.iq.FU_type_0::FloatAdd              237160      2.45%     80.42% # Type of FU issued
system.cpu.iq.FU_type_0::FloatCmp                   0      0.00%     80.42% # Type of FU issued
system.cpu.iq.FU_type_0::FloatCvt                   0      0.00%     80.42% # Type of FU issued
system.cpu.iq.FU_type_0::FloatMult                  0      0.00%     80.42% # Type of FU issued
system.cpu.iq.FU_type_0::FloatDiv                   0      0.00%     80.42% # Type of FU issued
system.cpu.iq.FU_type_0::FloatSqrt                  0      0.00%     80.42% # Type of FU issued
system.cpu.iq.FU_type_0::SimdAdd                    0      0.00%     80.42% # Type of FU issued
system.cpu.iq.FU_type_0::SimdAddAcc                 0      0.00%     80.42% # Type of FU issued
system.cpu.iq.FU_type_0::SimdAlu                    0      0.00%     80.42% # Type of FU issued
system.cpu.iq.FU_type_0::SimdCmp                    0      0.00%     80.42% # Type of FU issued
system.cpu.iq.FU_type_0::SimdCvt                    0      0.00%     80.42% # Type of FU issued
system.cpu.iq.FU_type_0::SimdMisc                   0      0.00%     80.42% # Type of FU issued
system.cpu.iq.FU_type_0::SimdMult                   0      0.00%     80.42% # Type of FU issued
system.cpu.iq.FU_type_0::SimdMultAcc                0      0.00%     80.42% # Type of FU issued
system.cpu.iq.FU_type_0::SimdShift                  0      0.00%     80.42% # Type of FU issued
system.cpu.iq.FU_type_0::SimdShiftAcc               0      0.00%     80.42% # Type of FU issued
system.cpu.iq.FU_type_0::SimdSqrt                   0      0.00%     80.42% # Type of FU issued
system.cpu.iq.FU_type_0::SimdFloatAdd               0      0.00%     80.42% # Type of FU issued
system.cpu.iq.FU_type_0::SimdFloatAlu               0      0.00%     80.42% # Type of FU issued
system.cpu.iq.FU_type_0::SimdFloatCmp               0      0.00%     80.42% # Type of FU issued
system.cpu.iq.FU_type_0::SimdFloatCvt               0      0.00%     80.42% # Type of FU issued
system.cpu.iq.FU_type_0::SimdFloatDiv               0      0.00%     80.42% # Type of FU issued
system.cpu.iq.FU_type_0::SimdFloatMisc              0      0.00%     80.42% # Type of FU issued
system.cpu.iq.FU_type_0::SimdFloatMult              0      0.00%     80.42% # Type of FU issued
system.cpu.iq.FU_type_0::SimdFloatMultAcc            0      0.00%     80.42% # Type of FU issued
system.cpu.iq.FU_type_0::SimdFloatSqrt              0      0.00%     80.42% # Type of FU issued
system.cpu.iq.FU_type_0::MemRead               973311     10.05%     90.47% # Type of FU issued
system.cpu.iq.FU_type_0::MemWrite              923058      9.53%    100.00% # Type of FU issued
system.cpu.iq.FU_type_0::IprAccess                  0      0.00%    100.00% # Type of FU issued
system.cpu.iq.FU_type_0::InstPrefetch               0      0.00%    100.00% # Type of FU issued
system.cpu.iq.FU_type_0::total                9686267                       # Type of FU issued
system.cpu.iq.rate                           2.188150                       # Inst issue rate
system.cpu.iq.fu_busy_cnt                     1602276                       # FU busy when requested
system.cpu.iq.fu_busy_rate                   0.165417                       # FU busy rate (busy events/executed inst)
system.cpu.iq.int_inst_queue_reads           24207065                       # Number of integer instruction queue reads
system.cpu.iq.int_inst_queue_writes          12992075                       # Number of integer instruction queue writes
system.cpu.iq.int_inst_queue_wakeup_accesses      8545859                       # Number of integer instruction queue wakeup accesses
system.cpu.iq.fp_inst_queue_reads             1429673                       # Number of floating instruction queue reads
system.cpu.iq.fp_inst_queue_writes             703993                       # Number of floating instruction queue writes
system.cpu.iq.fp_inst_queue_wakeup_accesses       619565                       # Number of floating instruction queue wakeup accesses
system.cpu.iq.int_alu_accesses               10269533                       # Number of integer alu accesses
system.cpu.iq.fp_alu_accesses                  801423                       # Number of floating point alu accesses
system.cpu.iew.lsq.thread0.forwLoads            60515                       # Number of loads that had data forwarded from stores
system.cpu.iew.lsq.thread0.invAddrLoads             0                       # Number of loads ignored due to an invalid address
system.cpu.iew.lsq.thread0.squashedLoads       294132                       # Number of loads squashed
system.cpu.iew.lsq.thread0.ignoredResponses          378                       # Number of memory responses ignored because the instruction is squashed
system.cpu.iew.lsq.thread0.memOrderViolation           63                       # Number of memory ordering violations
system.cpu.iew.lsq.thread0.squashedStores       218954                       # Number of stores squashed
system.cpu.iew.lsq.thread0.invAddrSwpfs             0                       # Number of software prefetches ignored due to an invalid address
system.cpu.iew.lsq.thread0.blockedLoads             0                       # Number of blocked loads due to partial load-store forwarding
system.cpu.iew.lsq.thread0.rescheduledLoads         1028                       # Number of loads that were rescheduled
system.cpu.iew.lsq.thread0.cacheBlocked            89                       # Number of times an access to memory failed due to the cache being blocked
system.cpu.iew.iewIdleCycles                        0                       # Number of cycles IEW is idle
system.cpu.iew.iewSquashCycles                 427331                       # Number of cycles IEW is squashing
system.cpu.iew.iewBlockCycles                    6072                       # Number of cycles IEW is blocking
system.cpu.iew.iewUnblockCycles                  1187                       # Number of cycles IEW is unblocking
system.cpu.iew.iewDispatchedInsts            10838246                       # Number of instructions dispatched to IQ
system.cpu.iew.iewDispSquashedInsts             23915                       # Number of squashed instructions skipped by dispatch
system.cpu.iew.iewDispLoadInsts               1028210                       # Number of dispatched load instructions
system.cpu.iew.iewDispStoreInsts               977357                       # Number of dispatched store instructions
system.cpu.iew.iewDispNonSpecInsts               1356                       # Number of dispatched non-speculative instructions
system.cpu.iew.iewIQFullEvents                     89                       # Number of times the IQ has become full, causing a stall
system.cpu.iew.iewLSQFullEvents                     0                       # Number of times the LSQ has become full, causing a stall
system.cpu.iew.memOrderViolationEvents             63                       # Number of memory order violations
system.cpu.iew.predictedTakenIncorrect          39777                       # Number of branches that were predicted taken incorrectly
system.cpu.iew.predictedNotTakenIncorrect       102022                       # Number of branches that were predicted not taken incorrectly
system.cpu.iew.branchMispredicts               141799                       # Number of branch mispredicts detected at execute
system.cpu.iew.iewExecutedInsts               9268835                       # Number of executed instructions
system.cpu.iew.iewExecLoadInsts                889779                       # Number of load instructions executed
system.cpu.iew.iewExecSquashedInsts            417432                       # Number of squashed instructions skipped in execute
system.cpu.iew.exec_swp                             0                       # number of swp insts executed
system.cpu.iew.exec_nop                             0                       # number of nop insts executed
system.cpu.iew.exec_refs                      1732217                       # number of memory reference insts executed
system.cpu.iew.exec_branches                  1066628                       # Number of branches executed
system.cpu.iew.exec_stores                     842438                       # Number of stores executed
system.cpu.iew.exec_rate                     2.093851                       # Inst execution rate
system.cpu.iew.wb_sent                        9243863                       # cumulative count of insts sent to commit
system.cpu.iew.wb_count                       9165424                       # cumulative count of insts written-back
system.cpu.iew.wb_producers                   6331063                       # num instructions producing a value
system.cpu.iew.wb_consumers                  10110909                       # num instructions consuming a value
system.cpu.iew.wb_penalized                         0                       # number of instrctions required to write to 'other' IQ
system.cpu.iew.wb_rate                       2.070491                       # insts written-back per cycle
system.cpu.iew.wb_fanout                     0.626162                       # average fanout of values written-back
system.cpu.iew.wb_penalized_rate                    0                       # fraction of instructions written-back that wrote to 'other' IQ
system.cpu.commit.commitSquashedInsts         2893000                       # The number of squashed insts skipped by commit
system.cpu.commit.commitNonSpecStalls            1342                       # The number of times commit has been forced to stall to communicate backwards
system.cpu.commit.branchMispredicts            131948                       # The number of times a branch was mispredicted
system.cpu.commit.committed_per_cycle::samples      3969803                       # Number of insts commited each cycle
system.cpu.commit.committed_per_cycle::mean     2.001423                       # Number of insts commited each cycle
system.cpu.commit.committed_per_cycle::stdev     2.392555                       # Number of insts commited each cycle
system.cpu.commit.committed_per_cycle::underflows            0      0.00%      0.00% # Number of insts commited each cycle
system.cpu.commit.committed_per_cycle::0      1529963     38.54%     38.54% # Number of insts commited each cycle
system.cpu.commit.committed_per_cycle::1       682113     17.18%     55.72% # Number of insts commited each cycle
system.cpu.commit.committed_per_cycle::2       394460      9.94%     65.66% # Number of insts commited each cycle
system.cpu.commit.committed_per_cycle::3       601830     15.16%     80.82% # Number of insts commited each cycle
system.cpu.commit.committed_per_cycle::4       226635      5.71%     86.53% # Number of insts commited each cycle
system.cpu.commit.committed_per_cycle::5       126704      3.19%     89.72% # Number of insts commited each cycle
system.cpu.commit.committed_per_cycle::6        39718      1.00%     90.72% # Number of insts commited each cycle
system.cpu.commit.committed_per_cycle::7        56674      1.43%     92.15% # Number of insts commited each cycle
system.cpu.commit.committed_per_cycle::8       311706      7.85%    100.00% # Number of insts commited each cycle
system.cpu.commit.committed_per_cycle::overflows            0      0.00%    100.00% # Number of insts commited each cycle
system.cpu.commit.committed_per_cycle::min_value            0                       # Number of insts commited each cycle
system.cpu.commit.committed_per_cycle::max_value            8                       # Number of insts commited each cycle
system.cpu.commit.committed_per_cycle::total      3969803                       # Number of insts commited each cycle
system.cpu.commit.committedInsts              3744478                       # Number of instructions committed
system.cpu.commit.committedOps                7945257                       # Number of ops (including micro ops) committed
system.cpu.commit.swp_count                         0                       # Number of s/w prefetches committed
system.cpu.commit.refs                        1492481                       # Number of memory references committed
system.cpu.commit.loads                        734078                       # Number of loads committed
system.cpu.commit.membars                           0                       # Number of memory barriers committed
system.cpu.commit.branches                     956802                       # Number of branches committed
system.cpu.commit.fp_insts                     598767                       # Number of committed floating point instructions.
system.cpu.commit.int_insts                   7732762                       # Number of committed integer instructions.
system.cpu.commit.function_calls                    0                       # Number of function calls committed.
system.cpu.commit.bw_lim_events                311706                       # number cycles where commit BW limit reached
system.cpu.commit.bw_limited                        0                       # number of insts not committed due to BW limits
system.cpu.rob.rob_reads                     14496354                       # The number of ROB reads
system.cpu.rob.rob_writes                    22107807                       # The number of ROB writes
system.cpu.timesIdled                            1805                       # Number of times that the entire CPU went into an idle state and unscheduled itself
system.cpu.idleCycles                           29558                       # Total number of cycles that the CPU has spent unscheduled due to idling
system.cpu.committedInsts                     3744478                       # Number of Instructions Simulated
system.cpu.committedOps                       7945257                       # Number of Ops (including micro ops) Simulated
system.cpu.committedInsts_total               3744478                       # Number of Instructions Simulated
system.cpu.cpi                               1.182192                       # CPI: Cycles Per Instruction
system.cpu.cpi_total                         1.182192                       # CPI: Total CPI of All Threads
system.cpu.ipc                               0.845886                       # IPC: Instructions Per Cycle
system.cpu.ipc_total                         0.845886                       # IPC: Total IPC of All Threads
system.cpu.int_regfile_reads                 17870848                       # number of integer regfile reads
system.cpu.int_regfile_writes                10234940                       # number of integer regfile writes
system.cpu.fp_regfile_reads                    792810                       # number of floating regfile reads
system.cpu.fp_regfile_writes                   227160                       # number of floating regfile writes
system.cpu.misc_regfile_reads                 3774831                       # number of misc regfile reads
system.cpu.misc_regfile_writes                      1                       # number of misc regfile writes
system.cpu.itb_walker_cache.replacements            0                       # number of replacements
system.cpu.itb_walker_cache.tagsinuse               0                       # Cycle average of tags in use
system.cpu.itb_walker_cache.total_refs              0                       # Total number of references to valid blocks.
system.cpu.itb_walker_cache.sampled_refs            0                       # Sample count of references to valid blocks.
system.cpu.itb_walker_cache.avg_refs              nan                       # Average number of references to valid blocks.
system.cpu.itb_walker_cache.warmup_cycle            0                       # Cycle when the warmup percentage was hit.
system.cpu.itb_walker_cache.blocked_cycles::no_mshrs            0                       # number of cycles access was blocked
system.cpu.itb_walker_cache.blocked_cycles::no_targets            0                       # number of cycles access was blocked
system.cpu.itb_walker_cache.blocked::no_mshrs            0                       # number of cycles access was blocked
system.cpu.itb_walker_cache.blocked::no_targets            0                       # number of cycles access was blocked
system.cpu.itb_walker_cache.avg_blocked_cycles::no_mshrs          nan                       # average number of cycles each access was blocked
system.cpu.itb_walker_cache.avg_blocked_cycles::no_targets          nan                       # average number of cycles each access was blocked
system.cpu.itb_walker_cache.fast_writes             0                       # number of fast writes performed
system.cpu.itb_walker_cache.cache_copies            0                       # number of cache copies performed
system.cpu.itb_walker_cache.no_allocate_misses            0                       # Number of misses that were no-allocate
system.cpu.dtb_walker_cache.replacements            0                       # number of replacements
system.cpu.dtb_walker_cache.tagsinuse               0                       # Cycle average of tags in use
system.cpu.dtb_walker_cache.total_refs              0                       # Total number of references to valid blocks.
system.cpu.dtb_walker_cache.sampled_refs            0                       # Sample count of references to valid blocks.
system.cpu.dtb_walker_cache.avg_refs              nan                       # Average number of references to valid blocks.
system.cpu.dtb_walker_cache.warmup_cycle            0                       # Cycle when the warmup percentage was hit.
system.cpu.dtb_walker_cache.blocked_cycles::no_mshrs            0                       # number of cycles access was blocked
system.cpu.dtb_walker_cache.blocked_cycles::no_targets            0                       # number of cycles access was blocked
system.cpu.dtb_walker_cache.blocked::no_mshrs            0                       # number of cycles access was blocked
system.cpu.dtb_walker_cache.blocked::no_targets            0                       # number of cycles access was blocked
system.cpu.dtb_walker_cache.avg_blocked_cycles::no_mshrs          nan                       # average number of cycles each access was blocked
system.cpu.dtb_walker_cache.avg_blocked_cycles::no_targets          nan                       # average number of cycles each access was blocked
system.cpu.dtb_walker_cache.fast_writes             0                       # number of fast writes performed
system.cpu.dtb_walker_cache.cache_copies            0                       # number of cache copies performed
system.cpu.dtb_walker_cache.no_allocate_misses            0                       # Number of misses that were no-allocate
system.cpu.icache.replacements                   6236                       # number of replacements
system.cpu.icache.tagsinuse                366.019434                       # Cycle average of tags in use
system.cpu.icache.total_refs                   959476                       # Total number of references to valid blocks.
system.cpu.icache.sampled_refs                   6633                       # Sample count of references to valid blocks.
system.cpu.icache.avg_refs                 144.651892                       # Average number of references to valid blocks.
system.cpu.icache.warmup_cycle                      0                       # Cycle when the warmup percentage was hit.
system.cpu.icache.occ_blocks::cpu.inst     366.019434                       # Average occupied blocks per requestor
system.cpu.icache.occ_percent::cpu.inst      0.714882                       # Average percentage of cache occupancy
system.cpu.icache.occ_percent::total         0.714882                       # Average percentage of cache occupancy
system.cpu.icache.ReadReq_hits::cpu.inst       959476                       # number of ReadReq hits
system.cpu.icache.ReadReq_hits::total          959476                       # number of ReadReq hits
system.cpu.icache.demand_hits::cpu.inst        959476                       # number of demand (read+write) hits
system.cpu.icache.demand_hits::total           959476                       # number of demand (read+write) hits
system.cpu.icache.overall_hits::cpu.inst       959476                       # number of overall hits
system.cpu.icache.overall_hits::total          959476                       # number of overall hits
system.cpu.icache.ReadReq_misses::cpu.inst         6902                       # number of ReadReq misses
system.cpu.icache.ReadReq_misses::total          6902                       # number of ReadReq misses
system.cpu.icache.demand_misses::cpu.inst         6902                       # number of demand (read+write) misses
system.cpu.icache.demand_misses::total           6902                       # number of demand (read+write) misses
system.cpu.icache.overall_misses::cpu.inst         6902                       # number of overall misses
system.cpu.icache.overall_misses::total          6902                       # number of overall misses
system.cpu.icache.ReadReq_miss_latency::cpu.inst    115349499                       # number of ReadReq miss cycles
system.cpu.icache.ReadReq_miss_latency::total    115349499                       # number of ReadReq miss cycles
system.cpu.icache.demand_miss_latency::cpu.inst    115349499                       # number of demand (read+write) miss cycles
system.cpu.icache.demand_miss_latency::total    115349499                       # number of demand (read+write) miss cycles
system.cpu.icache.overall_miss_latency::cpu.inst    115349499                       # number of overall miss cycles
system.cpu.icache.overall_miss_latency::total    115349499                       # number of overall miss cycles
system.cpu.icache.ReadReq_accesses::cpu.inst       966378                       # number of ReadReq accesses(hits+misses)
system.cpu.icache.ReadReq_accesses::total       966378                       # number of ReadReq accesses(hits+misses)
system.cpu.icache.demand_accesses::cpu.inst       966378                       # number of demand (read+write) accesses
system.cpu.icache.demand_accesses::total       966378                       # number of demand (read+write) accesses
system.cpu.icache.overall_accesses::cpu.inst       966378                       # number of overall (read+write) accesses
system.cpu.icache.overall_accesses::total       966378                       # number of overall (read+write) accesses
system.cpu.icache.ReadReq_miss_rate::cpu.inst     0.007142                       # miss rate for ReadReq accesses
system.cpu.icache.ReadReq_miss_rate::total     0.007142                       # miss rate for ReadReq accesses
system.cpu.icache.demand_miss_rate::cpu.inst     0.007142                       # miss rate for demand accesses
system.cpu.icache.demand_miss_rate::total     0.007142                       # miss rate for demand accesses
system.cpu.icache.overall_miss_rate::cpu.inst     0.007142                       # miss rate for overall accesses
system.cpu.icache.overall_miss_rate::total     0.007142                       # miss rate for overall accesses
system.cpu.icache.ReadReq_avg_miss_latency::cpu.inst 16712.474500                       # average ReadReq miss latency
system.cpu.icache.ReadReq_avg_miss_latency::total 16712.474500                       # average ReadReq miss latency
system.cpu.icache.demand_avg_miss_latency::cpu.inst 16712.474500                       # average overall miss latency
system.cpu.icache.demand_avg_miss_latency::total 16712.474500                       # average overall miss latency
system.cpu.icache.overall_avg_miss_latency::cpu.inst 16712.474500                       # average overall miss latency
system.cpu.icache.overall_avg_miss_latency::total 16712.474500                       # average overall miss latency
system.cpu.icache.blocked_cycles::no_mshrs          103                       # number of cycles access was blocked
system.cpu.icache.blocked_cycles::no_targets            0                       # number of cycles access was blocked
system.cpu.icache.blocked::no_mshrs                 3                       # number of cycles access was blocked
system.cpu.icache.blocked::no_targets               0                       # number of cycles access was blocked
system.cpu.icache.avg_blocked_cycles::no_mshrs    34.333333                       # average number of cycles each access was blocked
system.cpu.icache.avg_blocked_cycles::no_targets          nan                       # average number of cycles each access was blocked
system.cpu.icache.fast_writes                       0                       # number of fast writes performed
system.cpu.icache.cache_copies                      0                       # number of cache copies performed
system.cpu.icache.ReadReq_mshr_hits::cpu.inst          268                       # number of ReadReq MSHR hits
system.cpu.icache.ReadReq_mshr_hits::total          268                       # number of ReadReq MSHR hits
system.cpu.icache.demand_mshr_hits::cpu.inst          268                       # number of demand (read+write) MSHR hits
system.cpu.icache.demand_mshr_hits::total          268                       # number of demand (read+write) MSHR hits
system.cpu.icache.overall_mshr_hits::cpu.inst          268                       # number of overall MSHR hits
system.cpu.icache.overall_mshr_hits::total          268                       # number of overall MSHR hits
system.cpu.icache.ReadReq_mshr_misses::cpu.inst         6634                       # number of ReadReq MSHR misses
system.cpu.icache.ReadReq_mshr_misses::total         6634                       # number of ReadReq MSHR misses
system.cpu.icache.demand_mshr_misses::cpu.inst         6634                       # number of demand (read+write) MSHR misses
system.cpu.icache.demand_mshr_misses::total         6634                       # number of demand (read+write) MSHR misses
system.cpu.icache.overall_mshr_misses::cpu.inst         6634                       # number of overall MSHR misses
system.cpu.icache.overall_mshr_misses::total         6634                       # number of overall MSHR misses
system.cpu.icache.ReadReq_mshr_miss_latency::cpu.inst     94372499                       # number of ReadReq MSHR miss cycles
system.cpu.icache.ReadReq_mshr_miss_latency::total     94372499                       # number of ReadReq MSHR miss cycles
system.cpu.icache.demand_mshr_miss_latency::cpu.inst     94372499                       # number of demand (read+write) MSHR miss cycles
system.cpu.icache.demand_mshr_miss_latency::total     94372499                       # number of demand (read+write) MSHR miss cycles
system.cpu.icache.overall_mshr_miss_latency::cpu.inst     94372499                       # number of overall MSHR miss cycles
system.cpu.icache.overall_mshr_miss_latency::total     94372499                       # number of overall MSHR miss cycles
system.cpu.icache.ReadReq_mshr_miss_rate::cpu.inst     0.006865                       # mshr miss rate for ReadReq accesses
system.cpu.icache.ReadReq_mshr_miss_rate::total     0.006865                       # mshr miss rate for ReadReq accesses
system.cpu.icache.demand_mshr_miss_rate::cpu.inst     0.006865                       # mshr miss rate for demand accesses
system.cpu.icache.demand_mshr_miss_rate::total     0.006865                       # mshr miss rate for demand accesses
system.cpu.icache.overall_mshr_miss_rate::cpu.inst     0.006865                       # mshr miss rate for overall accesses
system.cpu.icache.overall_mshr_miss_rate::total     0.006865                       # mshr miss rate for overall accesses
system.cpu.icache.ReadReq_avg_mshr_miss_latency::cpu.inst 14225.580193                       # average ReadReq mshr miss latency
system.cpu.icache.ReadReq_avg_mshr_miss_latency::total 14225.580193                       # average ReadReq mshr miss latency
system.cpu.icache.demand_avg_mshr_miss_latency::cpu.inst 14225.580193                       # average overall mshr miss latency
system.cpu.icache.demand_avg_mshr_miss_latency::total 14225.580193                       # average overall mshr miss latency
system.cpu.icache.overall_avg_mshr_miss_latency::cpu.inst 14225.580193                       # average overall mshr miss latency
system.cpu.icache.overall_avg_mshr_miss_latency::total 14225.580193                       # average overall mshr miss latency
system.cpu.icache.no_allocate_misses                0                       # Number of misses that were no-allocate
system.cpu.dcache.replacements                    751                       # number of replacements
system.cpu.dcache.tagsinuse                508.120173                       # Cycle average of tags in use
system.cpu.dcache.total_refs                  1584416                       # Total number of references to valid blocks.
system.cpu.dcache.sampled_refs                   1263                       # Sample count of references to valid blocks.
system.cpu.dcache.avg_refs                1254.486144                       # Average number of references to valid blocks.
system.cpu.dcache.warmup_cycle               34821000                       # Cycle when the warmup percentage was hit.
system.cpu.dcache.occ_blocks::cpu.data     508.120173                       # Average occupied blocks per requestor
system.cpu.dcache.occ_percent::cpu.data      0.992422                       # Average percentage of cache occupancy
system.cpu.dcache.occ_percent::total         0.992422                       # Average percentage of cache occupancy
system.cpu.dcache.ReadReq_hits::cpu.data       825918                       # number of ReadReq hits
system.cpu.dcache.ReadReq_hits::total          825918                       # number of ReadReq hits
system.cpu.dcache.WriteReq_hits::cpu.data       758498                       # number of WriteReq hits
system.cpu.dcache.WriteReq_hits::total         758498                       # number of WriteReq hits
system.cpu.dcache.demand_hits::cpu.data       1584416                       # number of demand (read+write) hits
system.cpu.dcache.demand_hits::total          1584416                       # number of demand (read+write) hits
system.cpu.dcache.overall_hits::cpu.data      1584416                       # number of overall hits
system.cpu.dcache.overall_hits::total         1584416                       # number of overall hits
system.cpu.dcache.ReadReq_misses::cpu.data         3527                       # number of ReadReq misses
system.cpu.dcache.ReadReq_misses::total          3527                       # number of ReadReq misses
system.cpu.dcache.WriteReq_misses::cpu.data          456                       # number of WriteReq misses
system.cpu.dcache.WriteReq_misses::total          456                       # number of WriteReq misses
system.cpu.dcache.demand_misses::cpu.data         3983                       # number of demand (read+write) misses
system.cpu.dcache.demand_misses::total           3983                       # number of demand (read+write) misses
system.cpu.dcache.overall_misses::cpu.data         3983                       # number of overall misses
system.cpu.dcache.overall_misses::total          3983                       # number of overall misses
system.cpu.dcache.ReadReq_miss_latency::cpu.data    140994000                       # number of ReadReq miss cycles
system.cpu.dcache.ReadReq_miss_latency::total    140994000                       # number of ReadReq miss cycles
system.cpu.dcache.WriteReq_miss_latency::cpu.data     25011000                       # number of WriteReq miss cycles
system.cpu.dcache.WriteReq_miss_latency::total     25011000                       # number of WriteReq miss cycles
system.cpu.dcache.demand_miss_latency::cpu.data    166005000                       # number of demand (read+write) miss cycles
system.cpu.dcache.demand_miss_latency::total    166005000                       # number of demand (read+write) miss cycles
system.cpu.dcache.overall_miss_latency::cpu.data    166005000                       # number of overall miss cycles
system.cpu.dcache.overall_miss_latency::total    166005000                       # number of overall miss cycles
system.cpu.dcache.ReadReq_accesses::cpu.data       829445                       # number of ReadReq accesses(hits+misses)
system.cpu.dcache.ReadReq_accesses::total       829445                       # number of ReadReq accesses(hits+misses)
system.cpu.dcache.WriteReq_accesses::cpu.data       758954                       # number of WriteReq accesses(hits+misses)
system.cpu.dcache.WriteReq_accesses::total       758954                       # number of WriteReq accesses(hits+misses)
system.cpu.dcache.demand_accesses::cpu.data      1588399                       # number of demand (read+write) accesses
system.cpu.dcache.demand_accesses::total      1588399                       # number of demand (read+write) accesses
system.cpu.dcache.overall_accesses::cpu.data      1588399                       # number of overall (read+write) accesses
system.cpu.dcache.overall_accesses::total      1588399                       # number of overall (read+write) accesses
system.cpu.dcache.ReadReq_miss_rate::cpu.data     0.004252                       # miss rate for ReadReq accesses
system.cpu.dcache.ReadReq_miss_rate::total     0.004252                       # miss rate for ReadReq accesses
system.cpu.dcache.WriteReq_miss_rate::cpu.data     0.000601                       # miss rate for WriteReq accesses
system.cpu.dcache.WriteReq_miss_rate::total     0.000601                       # miss rate for WriteReq accesses
system.cpu.dcache.demand_miss_rate::cpu.data     0.002508                       # miss rate for demand accesses
system.cpu.dcache.demand_miss_rate::total     0.002508                       # miss rate for demand accesses
system.cpu.dcache.overall_miss_rate::cpu.data     0.002508                       # miss rate for overall accesses
system.cpu.dcache.overall_miss_rate::total     0.002508                       # miss rate for overall accesses
system.cpu.dcache.ReadReq_avg_miss_latency::cpu.data 39975.616671                       # average ReadReq miss latency
system.cpu.dcache.ReadReq_avg_miss_latency::total 39975.616671                       # average ReadReq miss latency
system.cpu.dcache.WriteReq_avg_miss_latency::cpu.data 54848.684211                       # average WriteReq miss latency
system.cpu.dcache.WriteReq_avg_miss_latency::total 54848.684211                       # average WriteReq miss latency
system.cpu.dcache.demand_avg_miss_latency::cpu.data 41678.383128                       # average overall miss latency
system.cpu.dcache.demand_avg_miss_latency::total 41678.383128                       # average overall miss latency
system.cpu.dcache.overall_avg_miss_latency::cpu.data 41678.383128                       # average overall miss latency
system.cpu.dcache.overall_avg_miss_latency::total 41678.383128                       # average overall miss latency
system.cpu.dcache.blocked_cycles::no_mshrs          385                       # number of cycles access was blocked
system.cpu.dcache.blocked_cycles::no_targets            0                       # number of cycles access was blocked
system.cpu.dcache.blocked::no_mshrs                14                       # number of cycles access was blocked
system.cpu.dcache.blocked::no_targets               0                       # number of cycles access was blocked
system.cpu.dcache.avg_blocked_cycles::no_mshrs    27.500000                       # average number of cycles each access was blocked
system.cpu.dcache.avg_blocked_cycles::no_targets          nan                       # average number of cycles each access was blocked
system.cpu.dcache.fast_writes                       0                       # number of fast writes performed
system.cpu.dcache.cache_copies                      0                       # number of cache copies performed
system.cpu.dcache.writebacks::writebacks          339                       # number of writebacks
system.cpu.dcache.writebacks::total               339                       # number of writebacks
system.cpu.dcache.ReadReq_mshr_hits::cpu.data         2718                       # number of ReadReq MSHR hits
system.cpu.dcache.ReadReq_mshr_hits::total         2718                       # number of ReadReq MSHR hits
system.cpu.dcache.WriteReq_mshr_hits::cpu.data            2                       # number of WriteReq MSHR hits
system.cpu.dcache.WriteReq_mshr_hits::total            2                       # number of WriteReq MSHR hits
system.cpu.dcache.demand_mshr_hits::cpu.data         2720                       # number of demand (read+write) MSHR hits
system.cpu.dcache.demand_mshr_hits::total         2720                       # number of demand (read+write) MSHR hits
system.cpu.dcache.overall_mshr_hits::cpu.data         2720                       # number of overall MSHR hits
system.cpu.dcache.overall_mshr_hits::total         2720                       # number of overall MSHR hits
system.cpu.dcache.ReadReq_mshr_misses::cpu.data          809                       # number of ReadReq MSHR misses
system.cpu.dcache.ReadReq_mshr_misses::total          809                       # number of ReadReq MSHR misses
system.cpu.dcache.WriteReq_mshr_misses::cpu.data          454                       # number of WriteReq MSHR misses
system.cpu.dcache.WriteReq_mshr_misses::total          454                       # number of WriteReq MSHR misses
system.cpu.dcache.demand_mshr_misses::cpu.data         1263                       # number of demand (read+write) MSHR misses
system.cpu.dcache.demand_mshr_misses::total         1263                       # number of demand (read+write) MSHR misses
system.cpu.dcache.overall_mshr_misses::cpu.data         1263                       # number of overall MSHR misses
system.cpu.dcache.overall_mshr_misses::total         1263                       # number of overall MSHR misses
system.cpu.dcache.ReadReq_mshr_miss_latency::cpu.data     32656000                       # number of ReadReq MSHR miss cycles
system.cpu.dcache.ReadReq_mshr_miss_latency::total     32656000                       # number of ReadReq MSHR miss cycles
system.cpu.dcache.WriteReq_mshr_miss_latency::cpu.data     24016500                       # number of WriteReq MSHR miss cycles
system.cpu.dcache.WriteReq_mshr_miss_latency::total     24016500                       # number of WriteReq MSHR miss cycles
system.cpu.dcache.demand_mshr_miss_latency::cpu.data     56672500                       # number of demand (read+write) MSHR miss cycles
system.cpu.dcache.demand_mshr_miss_latency::total     56672500                       # number of demand (read+write) MSHR miss cycles
system.cpu.dcache.overall_mshr_miss_latency::cpu.data     56672500                       # number of overall MSHR miss cycles
system.cpu.dcache.overall_mshr_miss_latency::total     56672500                       # number of overall MSHR miss cycles
system.cpu.dcache.ReadReq_mshr_miss_rate::cpu.data     0.000975                       # mshr miss rate for ReadReq accesses
system.cpu.dcache.ReadReq_mshr_miss_rate::total     0.000975                       # mshr miss rate for ReadReq accesses
system.cpu.dcache.WriteReq_mshr_miss_rate::cpu.data     0.000598                       # mshr miss rate for WriteReq accesses
system.cpu.dcache.WriteReq_mshr_miss_rate::total     0.000598                       # mshr miss rate for WriteReq accesses
system.cpu.dcache.demand_mshr_miss_rate::cpu.data     0.000795                       # mshr miss rate for demand accesses
system.cpu.dcache.demand_mshr_miss_rate::total     0.000795                       # mshr miss rate for demand accesses
system.cpu.dcache.overall_mshr_miss_rate::cpu.data     0.000795                       # mshr miss rate for overall accesses
system.cpu.dcache.overall_mshr_miss_rate::total     0.000795                       # mshr miss rate for overall accesses
system.cpu.dcache.ReadReq_avg_mshr_miss_latency::cpu.data 40365.883807                       # average ReadReq mshr miss latency
system.cpu.dcache.ReadReq_avg_mshr_miss_latency::total 40365.883807                       # average ReadReq mshr miss latency
system.cpu.dcache.WriteReq_avg_mshr_miss_latency::cpu.data 52899.779736                       # average WriteReq mshr miss latency
system.cpu.dcache.WriteReq_avg_mshr_miss_latency::total 52899.779736                       # average WriteReq mshr miss latency
system.cpu.dcache.demand_avg_mshr_miss_latency::cpu.data 44871.338084                       # average overall mshr miss latency
system.cpu.dcache.demand_avg_mshr_miss_latency::total 44871.338084                       # average overall mshr miss latency
system.cpu.dcache.overall_avg_mshr_miss_latency::cpu.data 44871.338084                       # average overall mshr miss latency
system.cpu.dcache.overall_avg_mshr_miss_latency::total 44871.338084                       # average overall mshr miss latency
system.cpu.dcache.no_allocate_misses                0                       # Number of misses that were no-allocate

---------- End Simulation Statistics   ----------
