
---------- Begin Simulation Statistics ----------
sim_seconds                                  0.346098                       # Number of seconds simulated
sim_ticks                                346097767500                       # Number of ticks simulated
final_tick                               346097767500                       # Number of ticks from beginning of simulation (restored from checkpoints and never reset)
sim_freq                                 1000000000000                       # Frequency of simulated ticks
host_inst_rate                                  38282                       # Simulator instruction rate (inst/s)
host_op_rate                                    62428                       # Simulator op (including micro ops) rate (op/s)
host_tick_rate                              132492237                       # Simulator tick rate (ticks/s)
host_mem_usage                                2204968                       # Number of bytes of host memory used
host_seconds                                  2612.21                       # Real time elapsed on the host
sim_insts                                   100000000                       # Number of instructions simulated
sim_ops                                     163075147                       # Number of ops (including micro ops) simulated
system.physmem.bytes_read::cpu.inst             12544                       # Number of bytes read from this memory
system.physmem.bytes_read::cpu.data             11264                       # Number of bytes read from this memory
system.physmem.bytes_read::total                23808                       # Number of bytes read from this memory
system.physmem.bytes_inst_read::cpu.inst        12544                       # Number of instructions bytes read from this memory
system.physmem.bytes_inst_read::total           12544                       # Number of instructions bytes read from this memory
system.physmem.num_reads::cpu.inst                196                       # Number of read requests responded to by this memory
system.physmem.num_reads::cpu.data                176                       # Number of read requests responded to by this memory
system.physmem.num_reads::total                   372                       # Number of read requests responded to by this memory
system.physmem.bw_read::cpu.inst                36244                       # Total read bandwidth from this memory (bytes/s)
system.physmem.bw_read::cpu.data                32546                       # Total read bandwidth from this memory (bytes/s)
system.physmem.bw_read::total                   68790                       # Total read bandwidth from this memory (bytes/s)
system.physmem.bw_inst_read::cpu.inst           36244                       # Instruction read bandwidth from this memory (bytes/s)
system.physmem.bw_inst_read::total              36244                       # Instruction read bandwidth from this memory (bytes/s)
system.physmem.bw_total::cpu.inst               36244                       # Total bandwidth to/from this memory (bytes/s)
system.physmem.bw_total::cpu.data               32546                       # Total bandwidth to/from this memory (bytes/s)
system.physmem.bw_total::total                  68790                       # Total bandwidth to/from this memory (bytes/s)
system.l2.replacements                              0                       # number of replacements
system.l2.tagsinuse                        300.977257                       # Cycle average of tags in use
system.l2.total_refs                               19                       # Total number of references to valid blocks.
system.l2.sampled_refs                            301                       # Sample count of references to valid blocks.
system.l2.avg_refs                           0.063123                       # Average number of references to valid blocks.
system.l2.warmup_cycle                              0                       # Cycle when the warmup percentage was hit.
system.l2.occ_blocks::writebacks            10.999227                       # Average occupied blocks per requestor
system.l2.occ_blocks::cpu.inst             195.990940                       # Average occupied blocks per requestor
system.l2.occ_blocks::cpu.data              93.987091                       # Average occupied blocks per requestor
system.l2.occ_percent::writebacks            0.010741                       # Average percentage of cache occupancy
system.l2.occ_percent::cpu.inst              0.191397                       # Average percentage of cache occupancy
system.l2.occ_percent::cpu.data              0.091784                       # Average percentage of cache occupancy
system.l2.occ_percent::total                 0.293923                       # Average percentage of cache occupancy
system.l2.ReadReq_hits::cpu.inst                    6                       # number of ReadReq hits
system.l2.ReadReq_hits::cpu.data                    3                       # number of ReadReq hits
system.l2.ReadReq_hits::total                       9                       # number of ReadReq hits
system.l2.Writeback_hits::writebacks               17                       # number of Writeback hits
system.l2.Writeback_hits::total                    17                       # number of Writeback hits
system.l2.ReadExReq_hits::cpu.data                  4                       # number of ReadExReq hits
system.l2.ReadExReq_hits::total                     4                       # number of ReadExReq hits
system.l2.demand_hits::cpu.inst                     6                       # number of demand (read+write) hits
system.l2.demand_hits::cpu.data                     7                       # number of demand (read+write) hits
system.l2.demand_hits::total                       13                       # number of demand (read+write) hits
system.l2.overall_hits::cpu.inst                    6                       # number of overall hits
system.l2.overall_hits::cpu.data                    7                       # number of overall hits
system.l2.overall_hits::total                      13                       # number of overall hits
system.l2.ReadReq_misses::cpu.inst                196                       # number of ReadReq misses
system.l2.ReadReq_misses::cpu.data                 98                       # number of ReadReq misses
system.l2.ReadReq_misses::total                   294                       # number of ReadReq misses
system.l2.ReadExReq_misses::cpu.data               78                       # number of ReadExReq misses
system.l2.ReadExReq_misses::total                  78                       # number of ReadExReq misses
system.l2.demand_misses::cpu.inst                 196                       # number of demand (read+write) misses
system.l2.demand_misses::cpu.data                 176                       # number of demand (read+write) misses
system.l2.demand_misses::total                    372                       # number of demand (read+write) misses
system.l2.overall_misses::cpu.inst                196                       # number of overall misses
system.l2.overall_misses::cpu.data                176                       # number of overall misses
system.l2.overall_misses::total                   372                       # number of overall misses
system.l2.ReadReq_miss_latency::cpu.inst     10324000                       # number of ReadReq miss cycles
system.l2.ReadReq_miss_latency::cpu.data      5151500                       # number of ReadReq miss cycles
system.l2.ReadReq_miss_latency::total        15475500                       # number of ReadReq miss cycles
system.l2.ReadExReq_miss_latency::cpu.data      4078000                       # number of ReadExReq miss cycles
system.l2.ReadExReq_miss_latency::total       4078000                       # number of ReadExReq miss cycles
system.l2.demand_miss_latency::cpu.inst      10324000                       # number of demand (read+write) miss cycles
system.l2.demand_miss_latency::cpu.data       9229500                       # number of demand (read+write) miss cycles
system.l2.demand_miss_latency::total         19553500                       # number of demand (read+write) miss cycles
system.l2.overall_miss_latency::cpu.inst     10324000                       # number of overall miss cycles
system.l2.overall_miss_latency::cpu.data      9229500                       # number of overall miss cycles
system.l2.overall_miss_latency::total        19553500                       # number of overall miss cycles
system.l2.ReadReq_accesses::cpu.inst              202                       # number of ReadReq accesses(hits+misses)
system.l2.ReadReq_accesses::cpu.data              101                       # number of ReadReq accesses(hits+misses)
system.l2.ReadReq_accesses::total                 303                       # number of ReadReq accesses(hits+misses)
system.l2.Writeback_accesses::writebacks           17                       # number of Writeback accesses(hits+misses)
system.l2.Writeback_accesses::total                17                       # number of Writeback accesses(hits+misses)
system.l2.ReadExReq_accesses::cpu.data             82                       # number of ReadExReq accesses(hits+misses)
system.l2.ReadExReq_accesses::total                82                       # number of ReadExReq accesses(hits+misses)
system.l2.demand_accesses::cpu.inst               202                       # number of demand (read+write) accesses
system.l2.demand_accesses::cpu.data               183                       # number of demand (read+write) accesses
system.l2.demand_accesses::total                  385                       # number of demand (read+write) accesses
system.l2.overall_accesses::cpu.inst              202                       # number of overall (read+write) accesses
system.l2.overall_accesses::cpu.data              183                       # number of overall (read+write) accesses
system.l2.overall_accesses::total                 385                       # number of overall (read+write) accesses
system.l2.ReadReq_miss_rate::cpu.inst        0.970297                       # miss rate for ReadReq accesses
system.l2.ReadReq_miss_rate::cpu.data        0.970297                       # miss rate for ReadReq accesses
system.l2.ReadReq_miss_rate::total           0.970297                       # miss rate for ReadReq accesses
system.l2.ReadExReq_miss_rate::cpu.data      0.951220                       # miss rate for ReadExReq accesses
system.l2.ReadExReq_miss_rate::total         0.951220                       # miss rate for ReadExReq accesses
system.l2.demand_miss_rate::cpu.inst         0.970297                       # miss rate for demand accesses
system.l2.demand_miss_rate::cpu.data         0.961749                       # miss rate for demand accesses
system.l2.demand_miss_rate::total            0.966234                       # miss rate for demand accesses
system.l2.overall_miss_rate::cpu.inst        0.970297                       # miss rate for overall accesses
system.l2.overall_miss_rate::cpu.data        0.961749                       # miss rate for overall accesses
system.l2.overall_miss_rate::total           0.966234                       # miss rate for overall accesses
system.l2.ReadReq_avg_miss_latency::cpu.inst 52673.469388                       # average ReadReq miss latency
system.l2.ReadReq_avg_miss_latency::cpu.data 52566.326531                       # average ReadReq miss latency
system.l2.ReadReq_avg_miss_latency::total 52637.755102                       # average ReadReq miss latency
system.l2.ReadExReq_avg_miss_latency::cpu.data 52282.051282                       # average ReadExReq miss latency
system.l2.ReadExReq_avg_miss_latency::total 52282.051282                       # average ReadExReq miss latency
system.l2.demand_avg_miss_latency::cpu.inst 52673.469388                       # average overall miss latency
system.l2.demand_avg_miss_latency::cpu.data 52440.340909                       # average overall miss latency
system.l2.demand_avg_miss_latency::total 52563.172043                       # average overall miss latency
system.l2.overall_avg_miss_latency::cpu.inst 52673.469388                       # average overall miss latency
system.l2.overall_avg_miss_latency::cpu.data 52440.340909                       # average overall miss latency
system.l2.overall_avg_miss_latency::total 52563.172043                       # average overall miss latency
system.l2.blocked_cycles::no_mshrs                  0                       # number of cycles access was blocked
system.l2.blocked_cycles::no_targets                0                       # number of cycles access was blocked
system.l2.blocked::no_mshrs                         0                       # number of cycles access was blocked
system.l2.blocked::no_targets                       0                       # number of cycles access was blocked
system.l2.avg_blocked_cycles::no_mshrs            nan                       # average number of cycles each access was blocked
system.l2.avg_blocked_cycles::no_targets          nan                       # average number of cycles each access was blocked
system.l2.fast_writes                               0                       # number of fast writes performed
system.l2.cache_copies                              0                       # number of cache copies performed
system.l2.ReadReq_mshr_misses::cpu.inst           196                       # number of ReadReq MSHR misses
system.l2.ReadReq_mshr_misses::cpu.data            98                       # number of ReadReq MSHR misses
system.l2.ReadReq_mshr_misses::total              294                       # number of ReadReq MSHR misses
system.l2.ReadExReq_mshr_misses::cpu.data           78                       # number of ReadExReq MSHR misses
system.l2.ReadExReq_mshr_misses::total             78                       # number of ReadExReq MSHR misses
system.l2.demand_mshr_misses::cpu.inst            196                       # number of demand (read+write) MSHR misses
system.l2.demand_mshr_misses::cpu.data            176                       # number of demand (read+write) MSHR misses
system.l2.demand_mshr_misses::total               372                       # number of demand (read+write) MSHR misses
system.l2.overall_mshr_misses::cpu.inst           196                       # number of overall MSHR misses
system.l2.overall_mshr_misses::cpu.data           176                       # number of overall MSHR misses
system.l2.overall_mshr_misses::total              372                       # number of overall MSHR misses
system.l2.ReadReq_mshr_miss_latency::cpu.inst      7920000                       # number of ReadReq MSHR miss cycles
system.l2.ReadReq_mshr_miss_latency::cpu.data      3954500                       # number of ReadReq MSHR miss cycles
system.l2.ReadReq_mshr_miss_latency::total     11874500                       # number of ReadReq MSHR miss cycles
system.l2.ReadExReq_mshr_miss_latency::cpu.data      3130500                       # number of ReadExReq MSHR miss cycles
system.l2.ReadExReq_mshr_miss_latency::total      3130500                       # number of ReadExReq MSHR miss cycles
system.l2.demand_mshr_miss_latency::cpu.inst      7920000                       # number of demand (read+write) MSHR miss cycles
system.l2.demand_mshr_miss_latency::cpu.data      7085000                       # number of demand (read+write) MSHR miss cycles
system.l2.demand_mshr_miss_latency::total     15005000                       # number of demand (read+write) MSHR miss cycles
system.l2.overall_mshr_miss_latency::cpu.inst      7920000                       # number of overall MSHR miss cycles
system.l2.overall_mshr_miss_latency::cpu.data      7085000                       # number of overall MSHR miss cycles
system.l2.overall_mshr_miss_latency::total     15005000                       # number of overall MSHR miss cycles
system.l2.ReadReq_mshr_miss_rate::cpu.inst     0.970297                       # mshr miss rate for ReadReq accesses
system.l2.ReadReq_mshr_miss_rate::cpu.data     0.970297                       # mshr miss rate for ReadReq accesses
system.l2.ReadReq_mshr_miss_rate::total      0.970297                       # mshr miss rate for ReadReq accesses
system.l2.ReadExReq_mshr_miss_rate::cpu.data     0.951220                       # mshr miss rate for ReadExReq accesses
system.l2.ReadExReq_mshr_miss_rate::total     0.951220                       # mshr miss rate for ReadExReq accesses
system.l2.demand_mshr_miss_rate::cpu.inst     0.970297                       # mshr miss rate for demand accesses
system.l2.demand_mshr_miss_rate::cpu.data     0.961749                       # mshr miss rate for demand accesses
system.l2.demand_mshr_miss_rate::total       0.966234                       # mshr miss rate for demand accesses
system.l2.overall_mshr_miss_rate::cpu.inst     0.970297                       # mshr miss rate for overall accesses
system.l2.overall_mshr_miss_rate::cpu.data     0.961749                       # mshr miss rate for overall accesses
system.l2.overall_mshr_miss_rate::total      0.966234                       # mshr miss rate for overall accesses
system.l2.ReadReq_avg_mshr_miss_latency::cpu.inst 40408.163265                       # average ReadReq mshr miss latency
system.l2.ReadReq_avg_mshr_miss_latency::cpu.data 40352.040816                       # average ReadReq mshr miss latency
system.l2.ReadReq_avg_mshr_miss_latency::total 40389.455782                       # average ReadReq mshr miss latency
system.l2.ReadExReq_avg_mshr_miss_latency::cpu.data 40134.615385                       # average ReadExReq mshr miss latency
system.l2.ReadExReq_avg_mshr_miss_latency::total 40134.615385                       # average ReadExReq mshr miss latency
system.l2.demand_avg_mshr_miss_latency::cpu.inst 40408.163265                       # average overall mshr miss latency
system.l2.demand_avg_mshr_miss_latency::cpu.data 40255.681818                       # average overall mshr miss latency
system.l2.demand_avg_mshr_miss_latency::total 40336.021505                       # average overall mshr miss latency
system.l2.overall_avg_mshr_miss_latency::cpu.inst 40408.163265                       # average overall mshr miss latency
system.l2.overall_avg_mshr_miss_latency::cpu.data 40255.681818                       # average overall mshr miss latency
system.l2.overall_avg_mshr_miss_latency::total 40336.021505                       # average overall mshr miss latency
system.l2.no_allocate_misses                        0                       # Number of misses that were no-allocate
system.cpu.branchPred.lookups                16231302                       # Number of BP lookups
system.cpu.branchPred.condPredicted          16231302                       # Number of conditional branches predicted
system.cpu.branchPred.condIncorrect           1467700                       # Number of conditional branches incorrect
system.cpu.branchPred.BTBLookups              8019266                       # Number of BTB lookups
system.cpu.branchPred.BTBHits                 7834177                       # Number of BTB hits
system.cpu.branchPred.BTBCorrect                    0                       # Number of correct BTB predictions (this stat may not work properly.
system.cpu.branchPred.BTBHitPct             97.691946                       # BTB Hit Percentage
system.cpu.branchPred.usedRAS                       0                       # Number of times the RAS was used to get a target.
system.cpu.branchPred.RASInCorrect                  0                       # Number of incorrect RAS predictions.
system.cpu.workload.num_syscalls                 4325                       # Number of system calls
system.cpu.numCycles                        692195536                       # number of cpu cycles simulated
system.cpu.numWorkItemsStarted                      0                       # number of work items this cpu started
system.cpu.numWorkItemsCompleted                    0                       # number of work items this cpu completed
system.cpu.fetch.icacheStallCycles           11047006                       # Number of cycles fetch is stalled on an Icache miss
system.cpu.fetch.Insts                      101773514                       # Number of instructions fetch has processed
system.cpu.fetch.Branches                    16231302                       # Number of branches that fetch encountered
system.cpu.fetch.predictedBranches            7834177                       # Number of branches that fetch has predicted taken
system.cpu.fetch.Cycles                     167193956                       # Number of cycles fetch has run and was not squashing or blocked
system.cpu.fetch.SquashCycles                 2935402                       # Number of cycles fetch has spent squashing
system.cpu.fetch.BlockedCycles              512461946                       # Number of cycles fetch has spent blocked
system.cpu.fetch.CacheLines                  10936851                       # Number of cache lines fetched
system.cpu.fetch.IcacheSquashes                    19                       # Number of outstanding Icache misses that were squashed
system.cpu.fetch.rateDist::samples          692170609                       # Number of instructions fetched each cycle (Total)
system.cpu.fetch.rateDist::mean              0.238424                       # Number of instructions fetched each cycle (Total)
system.cpu.fetch.rateDist::stdev             0.426120                       # Number of instructions fetched each cycle (Total)
system.cpu.fetch.rateDist::underflows               0      0.00%      0.00% # Number of instructions fetched each cycle (Total)
system.cpu.fetch.rateDist::0                527140263     76.16%     76.16% # Number of instructions fetched each cycle (Total)
system.cpu.fetch.rateDist::1                165030346     23.84%    100.00% # Number of instructions fetched each cycle (Total)
system.cpu.fetch.rateDist::overflows                0      0.00%    100.00% # Number of instructions fetched each cycle (Total)
system.cpu.fetch.rateDist::min_value                0                       # Number of instructions fetched each cycle (Total)
system.cpu.fetch.rateDist::max_value                1                       # Number of instructions fetched each cycle (Total)
system.cpu.fetch.rateDist::total            692170609                       # Number of instructions fetched each cycle (Total)
system.cpu.fetch.branchRate                  0.023449                       # Number of branch fetches per cycle
system.cpu.fetch.rate                        0.147030                       # Number of inst fetches per cycle
system.cpu.decode.IdleCycles                133760227                       # Number of cycles decode is idle
system.cpu.decode.BlockedCycles             392028469                       # Number of cycles decode is blocked
system.cpu.decode.RunCycles                 123737937                       # Number of cycles decode is running
system.cpu.decode.UnblockCycles              41176275                       # Number of cycles decode is unblocking
system.cpu.decode.SquashCycles                1467701                       # Number of cycles decode is squashing
system.cpu.decode.DecodedInsts              164914212                       # Number of instructions handled by decode
system.cpu.rename.SquashCycles                1467701                       # Number of cycles rename is squashing
system.cpu.rename.IdleCycles                176714313                       # Number of cycles rename is idle
system.cpu.rename.BlockCycles               349737682                       # Number of cycles rename is blocking
system.cpu.rename.serializeStallCycles          21638                       # count of cycles rename stalled for serializing inst
system.cpu.rename.RunCycles                  44285086                       # Number of cycles rename is running
system.cpu.rename.UnblockCycles             119944189                       # Number of cycles rename is unblocking
system.cpu.rename.RenamedInsts              164224948                       # Number of instructions processed by rename
system.cpu.rename.IQFullEvents               37071150                       # Number of times rename has blocked due to IQ full
system.cpu.rename.RenamedOperands           260488241                       # Number of destination operands rename has renamed
system.cpu.rename.RenameLookups             473411488                       # Number of register rename lookups that rename has made
system.cpu.rename.int_rename_lookups        473411159                       # Number of integer rename lookups
system.cpu.rename.fp_rename_lookups               329                       # Number of floating rename lookups
system.cpu.rename.CommittedMaps             257876885                       # Number of HB maps that are committed
system.cpu.rename.UndoneMaps                  2611353                       # Number of HB maps that are undone due to squashing
system.cpu.rename.serializingInsts               4327                       # count of serializing insts renamed
system.cpu.rename.tempSerializingInsts           4327                       # count of temporary serializing insts renamed
system.cpu.rename.skidInsts                 120060333                       # count of insts added to the skid buffer
system.cpu.memDep0.insertedLoads              6510396                       # Number of loads inserted to the mem dependence unit.
system.cpu.memDep0.insertedStores             1106156                       # Number of stores inserted to the mem dependence unit.
system.cpu.memDep0.conflictingLoads                 0                       # Number of conflicting loads.
system.cpu.memDep0.conflictingStores                0                       # Number of conflicting stores.
system.cpu.iq.iqInstsAdded                  163070822                       # Number of instructions added to the IQ (excludes non-spec)
system.cpu.iq.iqNonSpecInstsAdded                4326                       # Number of non-speculative instructions added to the IQ
system.cpu.iq.iqInstsIssued                 163075148                       # Number of instructions issued
system.cpu.iq.issued_per_cycle::samples     692170609                       # Number of insts issued each cycle
system.cpu.iq.issued_per_cycle::mean         0.235600                       # Number of insts issued each cycle
system.cpu.iq.issued_per_cycle::stdev        0.424373                       # Number of insts issued each cycle
system.cpu.iq.issued_per_cycle::underflows            0      0.00%      0.00% # Number of insts issued each cycle
system.cpu.iq.issued_per_cycle::0           529095461     76.44%     76.44% # Number of insts issued each cycle
system.cpu.iq.issued_per_cycle::1           163075148     23.56%    100.00% # Number of insts issued each cycle
system.cpu.iq.issued_per_cycle::overflows            0      0.00%    100.00% # Number of insts issued each cycle
system.cpu.iq.issued_per_cycle::min_value            0                       # Number of insts issued each cycle
system.cpu.iq.issued_per_cycle::max_value            1                       # Number of insts issued each cycle
system.cpu.iq.issued_per_cycle::total       692170609                       # Number of insts issued each cycle
system.cpu.iq.fu_full::No_OpClass                   0                       # attempts to use FU when none available
system.cpu.iq.fu_full::IntAlu                       0                       # attempts to use FU when none available
system.cpu.iq.fu_full::IntMult                      0                       # attempts to use FU when none available
system.cpu.iq.fu_full::IntDiv                       0                       # attempts to use FU when none available
system.cpu.iq.fu_full::FloatAdd                     0                       # attempts to use FU when none available
system.cpu.iq.fu_full::FloatCmp                     0                       # attempts to use FU when none available
system.cpu.iq.fu_full::FloatCvt                     0                       # attempts to use FU when none available
system.cpu.iq.fu_full::FloatMult                    0                       # attempts to use FU when none available
system.cpu.iq.fu_full::FloatDiv                     0                       # attempts to use FU when none available
system.cpu.iq.fu_full::FloatSqrt                    0                       # attempts to use FU when none available
system.cpu.iq.fu_full::SimdAdd                      0                       # attempts to use FU when none available
system.cpu.iq.fu_full::SimdAddAcc                   0                       # attempts to use FU when none available
system.cpu.iq.fu_full::SimdAlu                      0                       # attempts to use FU when none available
system.cpu.iq.fu_full::SimdCmp                      0                       # attempts to use FU when none available
system.cpu.iq.fu_full::SimdCvt                      0                       # attempts to use FU when none available
system.cpu.iq.fu_full::SimdMisc                     0                       # attempts to use FU when none available
system.cpu.iq.fu_full::SimdMult                     0                       # attempts to use FU when none available
system.cpu.iq.fu_full::SimdMultAcc                  0                       # attempts to use FU when none available
system.cpu.iq.fu_full::SimdShift                    0                       # attempts to use FU when none available
system.cpu.iq.fu_full::SimdShiftAcc                 0                       # attempts to use FU when none available
system.cpu.iq.fu_full::SimdSqrt                     0                       # attempts to use FU when none available
system.cpu.iq.fu_full::SimdFloatAdd                 0                       # attempts to use FU when none available
system.cpu.iq.fu_full::SimdFloatAlu                 0                       # attempts to use FU when none available
system.cpu.iq.fu_full::SimdFloatCmp                 0                       # attempts to use FU when none available
system.cpu.iq.fu_full::SimdFloatCvt                 0                       # attempts to use FU when none available
system.cpu.iq.fu_full::SimdFloatDiv                 0                       # attempts to use FU when none available
system.cpu.iq.fu_full::SimdFloatMisc                0                       # attempts to use FU when none available
system.cpu.iq.fu_full::SimdFloatMult                0                       # attempts to use FU when none available
system.cpu.iq.fu_full::SimdFloatMultAcc             0                       # attempts to use FU when none available
system.cpu.iq.fu_full::SimdFloatSqrt                0                       # attempts to use FU when none available
system.cpu.iq.fu_full::MemRead                      0                       # attempts to use FU when none available
system.cpu.iq.fu_full::MemWrite                     0                       # attempts to use FU when none available
system.cpu.iq.fu_full::IprAccess                    0                       # attempts to use FU when none available
system.cpu.iq.fu_full::InstPrefetch                 0                       # attempts to use FU when none available
system.cpu.iq.FU_type_0::No_OpClass                37      0.00%      0.00% # Type of FU issued
system.cpu.iq.FU_type_0::IntAlu             155458448     95.33%     95.33% # Type of FU issued
system.cpu.iq.FU_type_0::IntMult                    0      0.00%     95.33% # Type of FU issued
system.cpu.iq.FU_type_0::IntDiv                     0      0.00%     95.33% # Type of FU issued
system.cpu.iq.FU_type_0::FloatAdd                 111      0.00%     95.33% # Type of FU issued
system.cpu.iq.FU_type_0::FloatCmp                   0      0.00%     95.33% # Type of FU issued
system.cpu.iq.FU_type_0::FloatCvt                   0      0.00%     95.33% # Type of FU issued
system.cpu.iq.FU_type_0::FloatMult                  0      0.00%     95.33% # Type of FU issued
system.cpu.iq.FU_type_0::FloatDiv                   0      0.00%     95.33% # Type of FU issued
system.cpu.iq.FU_type_0::FloatSqrt                  0      0.00%     95.33% # Type of FU issued
system.cpu.iq.FU_type_0::SimdAdd                    0      0.00%     95.33% # Type of FU issued
system.cpu.iq.FU_type_0::SimdAddAcc                 0      0.00%     95.33% # Type of FU issued
system.cpu.iq.FU_type_0::SimdAlu                    0      0.00%     95.33% # Type of FU issued
system.cpu.iq.FU_type_0::SimdCmp                    0      0.00%     95.33% # Type of FU issued
system.cpu.iq.FU_type_0::SimdCvt                    0      0.00%     95.33% # Type of FU issued
system.cpu.iq.FU_type_0::SimdMisc                   0      0.00%     95.33% # Type of FU issued
system.cpu.iq.FU_type_0::SimdMult                   0      0.00%     95.33% # Type of FU issued
system.cpu.iq.FU_type_0::SimdMultAcc                0      0.00%     95.33% # Type of FU issued
system.cpu.iq.FU_type_0::SimdShift                  0      0.00%     95.33% # Type of FU issued
system.cpu.iq.FU_type_0::SimdShiftAcc               0      0.00%     95.33% # Type of FU issued
system.cpu.iq.FU_type_0::SimdSqrt                   0      0.00%     95.33% # Type of FU issued
system.cpu.iq.FU_type_0::SimdFloatAdd               0      0.00%     95.33% # Type of FU issued
system.cpu.iq.FU_type_0::SimdFloatAlu               0      0.00%     95.33% # Type of FU issued
system.cpu.iq.FU_type_0::SimdFloatCmp               0      0.00%     95.33% # Type of FU issued
system.cpu.iq.FU_type_0::SimdFloatCvt               0      0.00%     95.33% # Type of FU issued
system.cpu.iq.FU_type_0::SimdFloatDiv               0      0.00%     95.33% # Type of FU issued
system.cpu.iq.FU_type_0::SimdFloatMisc              0      0.00%     95.33% # Type of FU issued
system.cpu.iq.FU_type_0::SimdFloatMult              0      0.00%     95.33% # Type of FU issued
system.cpu.iq.FU_type_0::SimdFloatMultAcc            0      0.00%     95.33% # Type of FU issued
system.cpu.iq.FU_type_0::SimdFloatSqrt              0      0.00%     95.33% # Type of FU issued
system.cpu.iq.FU_type_0::MemRead              6510396      3.99%     99.32% # Type of FU issued
system.cpu.iq.FU_type_0::MemWrite             1106156      0.68%    100.00% # Type of FU issued
system.cpu.iq.FU_type_0::IprAccess                  0      0.00%    100.00% # Type of FU issued
system.cpu.iq.FU_type_0::InstPrefetch               0      0.00%    100.00% # Type of FU issued
system.cpu.iq.FU_type_0::total              163075148                       # Type of FU issued
system.cpu.iq.rate                           0.235591                       # Inst issue rate
system.cpu.iq.fu_busy_cnt                           0                       # FU busy when requested
system.cpu.iq.fu_busy_rate                          0                       # FU busy rate (busy events/executed inst)
system.cpu.iq.int_inst_queue_reads         1018320634                       # Number of integer instruction queue reads
system.cpu.iq.int_inst_queue_writes         163075013                       # Number of integer instruction queue writes
system.cpu.iq.int_inst_queue_wakeup_accesses    163075012                       # Number of integer instruction queue wakeup accesses
system.cpu.iq.fp_inst_queue_reads                 270                       # Number of floating instruction queue reads
system.cpu.iq.fp_inst_queue_writes                135                       # Number of floating instruction queue writes
system.cpu.iq.fp_inst_queue_wakeup_accesses          135                       # Number of floating instruction queue wakeup accesses
system.cpu.iq.int_alu_accesses              163074976                       # Number of integer alu accesses
system.cpu.iq.fp_alu_accesses                     135                       # Number of floating point alu accesses
system.cpu.iew.lsq.thread0.forwLoads                1                       # Number of loads that had data forwarded from stores
system.cpu.iew.lsq.thread0.invAddrLoads             0                       # Number of loads ignored due to an invalid address
system.cpu.iew.lsq.thread0.squashedLoads            0                       # Number of loads squashed
system.cpu.iew.lsq.thread0.ignoredResponses            0                       # Number of memory responses ignored because the instruction is squashed
system.cpu.iew.lsq.thread0.memOrderViolation            0                       # Number of memory ordering violations
system.cpu.iew.lsq.thread0.squashedStores            0                       # Number of stores squashed
system.cpu.iew.lsq.thread0.invAddrSwpfs             0                       # Number of software prefetches ignored due to an invalid address
system.cpu.iew.lsq.thread0.blockedLoads             0                       # Number of blocked loads due to partial load-store forwarding
system.cpu.iew.lsq.thread0.rescheduledLoads            0                       # Number of loads that were rescheduled
system.cpu.iew.lsq.thread0.cacheBlocked             0                       # Number of times an access to memory failed due to the cache being blocked
system.cpu.iew.iewIdleCycles                        0                       # Number of cycles IEW is idle
system.cpu.iew.iewSquashCycles                1467701                       # Number of cycles IEW is squashing
system.cpu.iew.iewBlockCycles                20651549                       # Number of cycles IEW is blocking
system.cpu.iew.iewUnblockCycles               4237885                       # Number of cycles IEW is unblocking
system.cpu.iew.iewDispatchedInsts           163075148                       # Number of instructions dispatched to IQ
system.cpu.iew.iewDispSquashedInsts                 8                       # Number of squashed instructions skipped by dispatch
system.cpu.iew.iewDispLoadInsts               6510396                       # Number of dispatched load instructions
system.cpu.iew.iewDispStoreInsts              1106156                       # Number of dispatched store instructions
system.cpu.iew.iewDispNonSpecInsts               4326                       # Number of dispatched non-speculative instructions
system.cpu.iew.iewIQFullEvents                      0                       # Number of times the IQ has become full, causing a stall
system.cpu.iew.iewLSQFullEvents                     0                       # Number of times the LSQ has become full, causing a stall
system.cpu.iew.memOrderViolationEvents              0                       # Number of memory order violations
system.cpu.iew.predictedTakenIncorrect         783756                       # Number of branches that were predicted taken incorrectly
system.cpu.iew.predictedNotTakenIncorrect       683944                       # Number of branches that were predicted not taken incorrectly
system.cpu.iew.branchMispredicts              1467700                       # Number of branch mispredicts detected at execute
system.cpu.iew.iewExecutedInsts             163075147                       # Number of executed instructions
system.cpu.iew.iewExecLoadInsts               6510396                       # Number of load instructions executed
system.cpu.iew.iewExecSquashedInsts                 0                       # Number of squashed instructions skipped in execute
system.cpu.iew.exec_swp                             0                       # number of swp insts executed
system.cpu.iew.exec_nop                             0                       # number of nop insts executed
system.cpu.iew.exec_refs                      7616552                       # number of memory reference insts executed
system.cpu.iew.exec_branches                 16231301                       # Number of branches executed
system.cpu.iew.exec_stores                    1106156                       # Number of stores executed
system.cpu.iew.exec_rate                     0.235591                       # Inst execution rate
system.cpu.iew.wb_sent                      163075147                       # cumulative count of insts sent to commit
system.cpu.iew.wb_count                     163075147                       # cumulative count of insts written-back
system.cpu.iew.wb_producers                         0                       # num instructions producing a value
system.cpu.iew.wb_consumers                         0                       # num instructions consuming a value
system.cpu.iew.wb_penalized                         0                       # number of instrctions required to write to 'other' IQ
system.cpu.iew.wb_rate                       0.235591                       # insts written-back per cycle
system.cpu.iew.wb_fanout                          nan                       # average fanout of values written-back
system.cpu.iew.wb_penalized_rate                    0                       # fraction of instructions written-back that wrote to 'other' IQ
system.cpu.commit.commitNonSpecStalls            4326                       # The number of times commit has been forced to stall to communicate backwards
system.cpu.commit.branchMispredicts           1467700                       # The number of times a branch was mispredicted
system.cpu.commit.committed_per_cycle::samples    690702908                       # Number of insts commited each cycle
system.cpu.commit.committed_per_cycle::mean     0.236100                       # Number of insts commited each cycle
system.cpu.commit.committed_per_cycle::stdev     0.424685                       # Number of insts commited each cycle
system.cpu.commit.committed_per_cycle::underflows            0      0.00%      0.00% # Number of insts commited each cycle
system.cpu.commit.committed_per_cycle::0    527627761     76.39%     76.39% # Number of insts commited each cycle
system.cpu.commit.committed_per_cycle::1    163075147     23.61%    100.00% # Number of insts commited each cycle
system.cpu.commit.committed_per_cycle::overflows            0      0.00%    100.00% # Number of insts commited each cycle
system.cpu.commit.committed_per_cycle::min_value            0                       # Number of insts commited each cycle
system.cpu.commit.committed_per_cycle::max_value            1                       # Number of insts commited each cycle
system.cpu.commit.committed_per_cycle::total    690702908                       # Number of insts commited each cycle
system.cpu.commit.committedInsts            100000000                       # Number of instructions committed
system.cpu.commit.committedOps              163075147                       # Number of ops (including micro ops) committed
system.cpu.commit.swp_count                         0                       # Number of s/w prefetches committed
system.cpu.commit.refs                        7616552                       # Number of memory references committed
system.cpu.commit.loads                       6510396                       # Number of loads committed
system.cpu.commit.membars                           0                       # Number of memory barriers committed
system.cpu.commit.branches                   16231301                       # Number of branches committed
system.cpu.commit.fp_insts                        135                       # Number of committed floating point instructions.
system.cpu.commit.int_insts                 163075041                       # Number of committed integer instructions.
system.cpu.commit.function_calls                    0                       # Number of function calls committed.
system.cpu.commit.bw_lim_events             163075147                       # number cycles where commit BW limit reached
system.cpu.commit.bw_limited                        0                       # number of insts not committed due to BW limits
system.cpu.rob.rob_reads                    690702908                       # The number of ROB reads
system.cpu.rob.rob_writes                   327617995                       # The number of ROB writes
system.cpu.timesIdled                             288                       # Number of times that the entire CPU went into an idle state and unscheduled itself
system.cpu.idleCycles                           24927                       # Total number of cycles that the CPU has spent unscheduled due to idling
system.cpu.committedInsts                   100000000                       # Number of Instructions Simulated
system.cpu.committedOps                     163075147                       # Number of Ops (including micro ops) Simulated
system.cpu.committedInsts_total             100000000                       # Number of Instructions Simulated
system.cpu.cpi                               6.921955                       # CPI: Cycles Per Instruction
system.cpu.cpi_total                         6.921955                       # CPI: Total CPI of All Threads
system.cpu.ipc                               0.144468                       # IPC: Instructions Per Cycle
system.cpu.ipc_total                         0.144468                       # IPC: Total IPC of All Threads
system.cpu.int_regfile_reads                430901078                       # number of integer regfile reads
system.cpu.int_regfile_writes               257881102                       # number of integer regfile writes
system.cpu.fp_regfile_reads                       219                       # number of floating regfile reads
system.cpu.fp_regfile_writes                      107                       # number of floating regfile writes
system.cpu.misc_regfile_reads                40077102                       # number of misc regfile reads
system.cpu.misc_regfile_writes                      1                       # number of misc regfile writes
system.cpu.itb_walker_cache.replacements            0                       # number of replacements
system.cpu.itb_walker_cache.tagsinuse               0                       # Cycle average of tags in use
system.cpu.itb_walker_cache.total_refs              0                       # Total number of references to valid blocks.
system.cpu.itb_walker_cache.sampled_refs            0                       # Sample count of references to valid blocks.
system.cpu.itb_walker_cache.avg_refs              nan                       # Average number of references to valid blocks.
system.cpu.itb_walker_cache.warmup_cycle            0                       # Cycle when the warmup percentage was hit.
system.cpu.itb_walker_cache.blocked_cycles::no_mshrs            0                       # number of cycles access was blocked
system.cpu.itb_walker_cache.blocked_cycles::no_targets            0                       # number of cycles access was blocked
system.cpu.itb_walker_cache.blocked::no_mshrs            0                       # number of cycles access was blocked
system.cpu.itb_walker_cache.blocked::no_targets            0                       # number of cycles access was blocked
system.cpu.itb_walker_cache.avg_blocked_cycles::no_mshrs          nan                       # average number of cycles each access was blocked
system.cpu.itb_walker_cache.avg_blocked_cycles::no_targets          nan                       # average number of cycles each access was blocked
system.cpu.itb_walker_cache.fast_writes             0                       # number of fast writes performed
system.cpu.itb_walker_cache.cache_copies            0                       # number of cache copies performed
system.cpu.itb_walker_cache.no_allocate_misses            0                       # Number of misses that were no-allocate
system.cpu.dtb_walker_cache.replacements            0                       # number of replacements
system.cpu.dtb_walker_cache.tagsinuse               0                       # Cycle average of tags in use
system.cpu.dtb_walker_cache.total_refs              0                       # Total number of references to valid blocks.
system.cpu.dtb_walker_cache.sampled_refs            0                       # Sample count of references to valid blocks.
system.cpu.dtb_walker_cache.avg_refs              nan                       # Average number of references to valid blocks.
system.cpu.dtb_walker_cache.warmup_cycle            0                       # Cycle when the warmup percentage was hit.
system.cpu.dtb_walker_cache.blocked_cycles::no_mshrs            0                       # number of cycles access was blocked
system.cpu.dtb_walker_cache.blocked_cycles::no_targets            0                       # number of cycles access was blocked
system.cpu.dtb_walker_cache.blocked::no_mshrs            0                       # number of cycles access was blocked
system.cpu.dtb_walker_cache.blocked::no_targets            0                       # number of cycles access was blocked
system.cpu.dtb_walker_cache.avg_blocked_cycles::no_mshrs          nan                       # average number of cycles each access was blocked
system.cpu.dtb_walker_cache.avg_blocked_cycles::no_targets          nan                       # average number of cycles each access was blocked
system.cpu.dtb_walker_cache.fast_writes             0                       # number of fast writes performed
system.cpu.dtb_walker_cache.cache_copies            0                       # number of cache copies performed
system.cpu.dtb_walker_cache.no_allocate_misses            0                       # Number of misses that were no-allocate
system.cpu.icache.replacements                     27                       # number of replacements
system.cpu.icache.tagsinuse                174.993194                       # Cycle average of tags in use
system.cpu.icache.total_refs                 10936646                       # Total number of references to valid blocks.
system.cpu.icache.sampled_refs                    202                       # Sample count of references to valid blocks.
system.cpu.icache.avg_refs               54141.811881                       # Average number of references to valid blocks.
system.cpu.icache.warmup_cycle                      0                       # Cycle when the warmup percentage was hit.
system.cpu.icache.occ_blocks::cpu.inst     174.993194                       # Average occupied blocks per requestor
system.cpu.icache.occ_percent::cpu.inst      0.683567                       # Average percentage of cache occupancy
system.cpu.icache.occ_percent::total         0.683567                       # Average percentage of cache occupancy
system.cpu.icache.ReadReq_hits::cpu.inst     10936646                       # number of ReadReq hits
system.cpu.icache.ReadReq_hits::total        10936646                       # number of ReadReq hits
system.cpu.icache.demand_hits::cpu.inst      10936646                       # number of demand (read+write) hits
system.cpu.icache.demand_hits::total         10936646                       # number of demand (read+write) hits
system.cpu.icache.overall_hits::cpu.inst     10936646                       # number of overall hits
system.cpu.icache.overall_hits::total        10936646                       # number of overall hits
system.cpu.icache.ReadReq_misses::cpu.inst          205                       # number of ReadReq misses
system.cpu.icache.ReadReq_misses::total           205                       # number of ReadReq misses
system.cpu.icache.demand_misses::cpu.inst          205                       # number of demand (read+write) misses
system.cpu.icache.demand_misses::total            205                       # number of demand (read+write) misses
system.cpu.icache.overall_misses::cpu.inst          205                       # number of overall misses
system.cpu.icache.overall_misses::total           205                       # number of overall misses
system.cpu.icache.ReadReq_miss_latency::cpu.inst     11147000                       # number of ReadReq miss cycles
system.cpu.icache.ReadReq_miss_latency::total     11147000                       # number of ReadReq miss cycles
system.cpu.icache.demand_miss_latency::cpu.inst     11147000                       # number of demand (read+write) miss cycles
system.cpu.icache.demand_miss_latency::total     11147000                       # number of demand (read+write) miss cycles
system.cpu.icache.overall_miss_latency::cpu.inst     11147000                       # number of overall miss cycles
system.cpu.icache.overall_miss_latency::total     11147000                       # number of overall miss cycles
system.cpu.icache.ReadReq_accesses::cpu.inst     10936851                       # number of ReadReq accesses(hits+misses)
system.cpu.icache.ReadReq_accesses::total     10936851                       # number of ReadReq accesses(hits+misses)
system.cpu.icache.demand_accesses::cpu.inst     10936851                       # number of demand (read+write) accesses
system.cpu.icache.demand_accesses::total     10936851                       # number of demand (read+write) accesses
system.cpu.icache.overall_accesses::cpu.inst     10936851                       # number of overall (read+write) accesses
system.cpu.icache.overall_accesses::total     10936851                       # number of overall (read+write) accesses
system.cpu.icache.ReadReq_miss_rate::cpu.inst     0.000019                       # miss rate for ReadReq accesses
system.cpu.icache.ReadReq_miss_rate::total     0.000019                       # miss rate for ReadReq accesses
system.cpu.icache.demand_miss_rate::cpu.inst     0.000019                       # miss rate for demand accesses
system.cpu.icache.demand_miss_rate::total     0.000019                       # miss rate for demand accesses
system.cpu.icache.overall_miss_rate::cpu.inst     0.000019                       # miss rate for overall accesses
system.cpu.icache.overall_miss_rate::total     0.000019                       # miss rate for overall accesses
system.cpu.icache.ReadReq_avg_miss_latency::cpu.inst 54375.609756                       # average ReadReq miss latency
system.cpu.icache.ReadReq_avg_miss_latency::total 54375.609756                       # average ReadReq miss latency
system.cpu.icache.demand_avg_miss_latency::cpu.inst 54375.609756                       # average overall miss latency
system.cpu.icache.demand_avg_miss_latency::total 54375.609756                       # average overall miss latency
system.cpu.icache.overall_avg_miss_latency::cpu.inst 54375.609756                       # average overall miss latency
system.cpu.icache.overall_avg_miss_latency::total 54375.609756                       # average overall miss latency
system.cpu.icache.blocked_cycles::no_mshrs            0                       # number of cycles access was blocked
system.cpu.icache.blocked_cycles::no_targets            0                       # number of cycles access was blocked
system.cpu.icache.blocked::no_mshrs                 0                       # number of cycles access was blocked
system.cpu.icache.blocked::no_targets               0                       # number of cycles access was blocked
system.cpu.icache.avg_blocked_cycles::no_mshrs          nan                       # average number of cycles each access was blocked
system.cpu.icache.avg_blocked_cycles::no_targets          nan                       # average number of cycles each access was blocked
system.cpu.icache.fast_writes                       0                       # number of fast writes performed
system.cpu.icache.cache_copies                      0                       # number of cache copies performed
system.cpu.icache.ReadReq_mshr_hits::cpu.inst            3                       # number of ReadReq MSHR hits
system.cpu.icache.ReadReq_mshr_hits::total            3                       # number of ReadReq MSHR hits
system.cpu.icache.demand_mshr_hits::cpu.inst            3                       # number of demand (read+write) MSHR hits
system.cpu.icache.demand_mshr_hits::total            3                       # number of demand (read+write) MSHR hits
system.cpu.icache.overall_mshr_hits::cpu.inst            3                       # number of overall MSHR hits
system.cpu.icache.overall_mshr_hits::total            3                       # number of overall MSHR hits
system.cpu.icache.ReadReq_mshr_misses::cpu.inst          202                       # number of ReadReq MSHR misses
system.cpu.icache.ReadReq_mshr_misses::total          202                       # number of ReadReq MSHR misses
system.cpu.icache.demand_mshr_misses::cpu.inst          202                       # number of demand (read+write) MSHR misses
system.cpu.icache.demand_mshr_misses::total          202                       # number of demand (read+write) MSHR misses
system.cpu.icache.overall_mshr_misses::cpu.inst          202                       # number of overall MSHR misses
system.cpu.icache.overall_mshr_misses::total          202                       # number of overall MSHR misses
system.cpu.icache.ReadReq_mshr_miss_latency::cpu.inst     10586000                       # number of ReadReq MSHR miss cycles
system.cpu.icache.ReadReq_mshr_miss_latency::total     10586000                       # number of ReadReq MSHR miss cycles
system.cpu.icache.demand_mshr_miss_latency::cpu.inst     10586000                       # number of demand (read+write) MSHR miss cycles
system.cpu.icache.demand_mshr_miss_latency::total     10586000                       # number of demand (read+write) MSHR miss cycles
system.cpu.icache.overall_mshr_miss_latency::cpu.inst     10586000                       # number of overall MSHR miss cycles
system.cpu.icache.overall_mshr_miss_latency::total     10586000                       # number of overall MSHR miss cycles
system.cpu.icache.ReadReq_mshr_miss_rate::cpu.inst     0.000018                       # mshr miss rate for ReadReq accesses
system.cpu.icache.ReadReq_mshr_miss_rate::total     0.000018                       # mshr miss rate for ReadReq accesses
system.cpu.icache.demand_mshr_miss_rate::cpu.inst     0.000018                       # mshr miss rate for demand accesses
system.cpu.icache.demand_mshr_miss_rate::total     0.000018                       # mshr miss rate for demand accesses
system.cpu.icache.overall_mshr_miss_rate::cpu.inst     0.000018                       # mshr miss rate for overall accesses
system.cpu.icache.overall_mshr_miss_rate::total     0.000018                       # mshr miss rate for overall accesses
system.cpu.icache.ReadReq_avg_mshr_miss_latency::cpu.inst 52405.940594                       # average ReadReq mshr miss latency
system.cpu.icache.ReadReq_avg_mshr_miss_latency::total 52405.940594                       # average ReadReq mshr miss latency
system.cpu.icache.demand_avg_mshr_miss_latency::cpu.inst 52405.940594                       # average overall mshr miss latency
system.cpu.icache.demand_avg_mshr_miss_latency::total 52405.940594                       # average overall mshr miss latency
system.cpu.icache.overall_avg_mshr_miss_latency::cpu.inst 52405.940594                       # average overall mshr miss latency
system.cpu.icache.overall_avg_mshr_miss_latency::total 52405.940594                       # average overall mshr miss latency
system.cpu.icache.no_allocate_misses                0                       # Number of misses that were no-allocate
system.cpu.dcache.replacements                     25                       # number of replacements
system.cpu.dcache.tagsinuse                157.983818                       # Cycle average of tags in use
system.cpu.dcache.total_refs                  7616369                       # Total number of references to valid blocks.
system.cpu.dcache.sampled_refs                    183                       # Sample count of references to valid blocks.
system.cpu.dcache.avg_refs               41619.502732                       # Average number of references to valid blocks.
system.cpu.dcache.warmup_cycle                      0                       # Cycle when the warmup percentage was hit.
system.cpu.dcache.occ_blocks::cpu.data     157.983818                       # Average occupied blocks per requestor
system.cpu.dcache.occ_percent::cpu.data      0.617124                       # Average percentage of cache occupancy
system.cpu.dcache.occ_percent::total         0.617124                       # Average percentage of cache occupancy
system.cpu.dcache.ReadReq_hits::cpu.data      6510295                       # number of ReadReq hits
system.cpu.dcache.ReadReq_hits::total         6510295                       # number of ReadReq hits
system.cpu.dcache.WriteReq_hits::cpu.data      1106074                       # number of WriteReq hits
system.cpu.dcache.WriteReq_hits::total        1106074                       # number of WriteReq hits
system.cpu.dcache.demand_hits::cpu.data       7616369                       # number of demand (read+write) hits
system.cpu.dcache.demand_hits::total          7616369                       # number of demand (read+write) hits
system.cpu.dcache.overall_hits::cpu.data      7616369                       # number of overall hits
system.cpu.dcache.overall_hits::total         7616369                       # number of overall hits
system.cpu.dcache.ReadReq_misses::cpu.data          101                       # number of ReadReq misses
system.cpu.dcache.ReadReq_misses::total           101                       # number of ReadReq misses
system.cpu.dcache.WriteReq_misses::cpu.data           82                       # number of WriteReq misses
system.cpu.dcache.WriteReq_misses::total           82                       # number of WriteReq misses
system.cpu.dcache.demand_misses::cpu.data          183                       # number of demand (read+write) misses
system.cpu.dcache.demand_misses::total            183                       # number of demand (read+write) misses
system.cpu.dcache.overall_misses::cpu.data          183                       # number of overall misses
system.cpu.dcache.overall_misses::total           183                       # number of overall misses
system.cpu.dcache.ReadReq_miss_latency::cpu.data      5485000                       # number of ReadReq miss cycles
system.cpu.dcache.ReadReq_miss_latency::total      5485000                       # number of ReadReq miss cycles
system.cpu.dcache.WriteReq_miss_latency::cpu.data      4364000                       # number of WriteReq miss cycles
system.cpu.dcache.WriteReq_miss_latency::total      4364000                       # number of WriteReq miss cycles
system.cpu.dcache.demand_miss_latency::cpu.data      9849000                       # number of demand (read+write) miss cycles
system.cpu.dcache.demand_miss_latency::total      9849000                       # number of demand (read+write) miss cycles
system.cpu.dcache.overall_miss_latency::cpu.data      9849000                       # number of overall miss cycles
system.cpu.dcache.overall_miss_latency::total      9849000                       # number of overall miss cycles
system.cpu.dcache.ReadReq_accesses::cpu.data      6510396                       # number of ReadReq accesses(hits+misses)
system.cpu.dcache.ReadReq_accesses::total      6510396                       # number of ReadReq accesses(hits+misses)
system.cpu.dcache.WriteReq_accesses::cpu.data      1106156                       # number of WriteReq accesses(hits+misses)
system.cpu.dcache.WriteReq_accesses::total      1106156                       # number of WriteReq accesses(hits+misses)
system.cpu.dcache.demand_accesses::cpu.data      7616552                       # number of demand (read+write) accesses
system.cpu.dcache.demand_accesses::total      7616552                       # number of demand (read+write) accesses
system.cpu.dcache.overall_accesses::cpu.data      7616552                       # number of overall (read+write) accesses
system.cpu.dcache.overall_accesses::total      7616552                       # number of overall (read+write) accesses
system.cpu.dcache.ReadReq_miss_rate::cpu.data     0.000016                       # miss rate for ReadReq accesses
system.cpu.dcache.ReadReq_miss_rate::total     0.000016                       # miss rate for ReadReq accesses
system.cpu.dcache.WriteReq_miss_rate::cpu.data     0.000074                       # miss rate for WriteReq accesses
system.cpu.dcache.WriteReq_miss_rate::total     0.000074                       # miss rate for WriteReq accesses
system.cpu.dcache.demand_miss_rate::cpu.data     0.000024                       # miss rate for demand accesses
system.cpu.dcache.demand_miss_rate::total     0.000024                       # miss rate for demand accesses
system.cpu.dcache.overall_miss_rate::cpu.data     0.000024                       # miss rate for overall accesses
system.cpu.dcache.overall_miss_rate::total     0.000024                       # miss rate for overall accesses
system.cpu.dcache.ReadReq_avg_miss_latency::cpu.data 54306.930693                       # average ReadReq miss latency
system.cpu.dcache.ReadReq_avg_miss_latency::total 54306.930693                       # average ReadReq miss latency
system.cpu.dcache.WriteReq_avg_miss_latency::cpu.data 53219.512195                       # average WriteReq miss latency
system.cpu.dcache.WriteReq_avg_miss_latency::total 53219.512195                       # average WriteReq miss latency
system.cpu.dcache.demand_avg_miss_latency::cpu.data 53819.672131                       # average overall miss latency
system.cpu.dcache.demand_avg_miss_latency::total 53819.672131                       # average overall miss latency
system.cpu.dcache.overall_avg_miss_latency::cpu.data 53819.672131                       # average overall miss latency
system.cpu.dcache.overall_avg_miss_latency::total 53819.672131                       # average overall miss latency
system.cpu.dcache.blocked_cycles::no_mshrs            0                       # number of cycles access was blocked
system.cpu.dcache.blocked_cycles::no_targets            0                       # number of cycles access was blocked
system.cpu.dcache.blocked::no_mshrs                 0                       # number of cycles access was blocked
system.cpu.dcache.blocked::no_targets               0                       # number of cycles access was blocked
system.cpu.dcache.avg_blocked_cycles::no_mshrs          nan                       # average number of cycles each access was blocked
system.cpu.dcache.avg_blocked_cycles::no_targets          nan                       # average number of cycles each access was blocked
system.cpu.dcache.fast_writes                       0                       # number of fast writes performed
system.cpu.dcache.cache_copies                      0                       # number of cache copies performed
system.cpu.dcache.writebacks::writebacks           17                       # number of writebacks
system.cpu.dcache.writebacks::total                17                       # number of writebacks
system.cpu.dcache.ReadReq_mshr_misses::cpu.data          101                       # number of ReadReq MSHR misses
system.cpu.dcache.ReadReq_mshr_misses::total          101                       # number of ReadReq MSHR misses
system.cpu.dcache.WriteReq_mshr_misses::cpu.data           82                       # number of WriteReq MSHR misses
system.cpu.dcache.WriteReq_mshr_misses::total           82                       # number of WriteReq MSHR misses
system.cpu.dcache.demand_mshr_misses::cpu.data          183                       # number of demand (read+write) MSHR misses
system.cpu.dcache.demand_mshr_misses::total          183                       # number of demand (read+write) MSHR misses
system.cpu.dcache.overall_mshr_misses::cpu.data          183                       # number of overall MSHR misses
system.cpu.dcache.overall_mshr_misses::total          183                       # number of overall MSHR misses
system.cpu.dcache.ReadReq_mshr_miss_latency::cpu.data      5283000                       # number of ReadReq MSHR miss cycles
system.cpu.dcache.ReadReq_mshr_miss_latency::total      5283000                       # number of ReadReq MSHR miss cycles
system.cpu.dcache.WriteReq_mshr_miss_latency::cpu.data      4200000                       # number of WriteReq MSHR miss cycles
system.cpu.dcache.WriteReq_mshr_miss_latency::total      4200000                       # number of WriteReq MSHR miss cycles
system.cpu.dcache.demand_mshr_miss_latency::cpu.data      9483000                       # number of demand (read+write) MSHR miss cycles
system.cpu.dcache.demand_mshr_miss_latency::total      9483000                       # number of demand (read+write) MSHR miss cycles
system.cpu.dcache.overall_mshr_miss_latency::cpu.data      9483000                       # number of overall MSHR miss cycles
system.cpu.dcache.overall_mshr_miss_latency::total      9483000                       # number of overall MSHR miss cycles
system.cpu.dcache.ReadReq_mshr_miss_rate::cpu.data     0.000016                       # mshr miss rate for ReadReq accesses
system.cpu.dcache.ReadReq_mshr_miss_rate::total     0.000016                       # mshr miss rate for ReadReq accesses
system.cpu.dcache.WriteReq_mshr_miss_rate::cpu.data     0.000074                       # mshr miss rate for WriteReq accesses
system.cpu.dcache.WriteReq_mshr_miss_rate::total     0.000074                       # mshr miss rate for WriteReq accesses
system.cpu.dcache.demand_mshr_miss_rate::cpu.data     0.000024                       # mshr miss rate for demand accesses
system.cpu.dcache.demand_mshr_miss_rate::total     0.000024                       # mshr miss rate for demand accesses
system.cpu.dcache.overall_mshr_miss_rate::cpu.data     0.000024                       # mshr miss rate for overall accesses
system.cpu.dcache.overall_mshr_miss_rate::total     0.000024                       # mshr miss rate for overall accesses
system.cpu.dcache.ReadReq_avg_mshr_miss_latency::cpu.data 52306.930693                       # average ReadReq mshr miss latency
system.cpu.dcache.ReadReq_avg_mshr_miss_latency::total 52306.930693                       # average ReadReq mshr miss latency
system.cpu.dcache.WriteReq_avg_mshr_miss_latency::cpu.data 51219.512195                       # average WriteReq mshr miss latency
system.cpu.dcache.WriteReq_avg_mshr_miss_latency::total 51219.512195                       # average WriteReq mshr miss latency
system.cpu.dcache.demand_avg_mshr_miss_latency::cpu.data 51819.672131                       # average overall mshr miss latency
system.cpu.dcache.demand_avg_mshr_miss_latency::total 51819.672131                       # average overall mshr miss latency
system.cpu.dcache.overall_avg_mshr_miss_latency::cpu.data 51819.672131                       # average overall mshr miss latency
system.cpu.dcache.overall_avg_mshr_miss_latency::total 51819.672131                       # average overall mshr miss latency
system.cpu.dcache.no_allocate_misses                0                       # Number of misses that were no-allocate

---------- End Simulation Statistics   ----------
