
---------- Begin Simulation Statistics ----------
sim_seconds                                  0.420007                       # Number of seconds simulated
sim_ticks                                420007303000                       # Number of ticks simulated
final_tick                               420007303000                       # Number of ticks from beginning of simulation (restored from checkpoints and never reset)
sim_freq                                 1000000000000                       # Frequency of simulated ticks
host_inst_rate                                  31558                       # Simulator instruction rate (inst/s)
host_op_rate                                    57765                       # Simulator op (including micro ops) rate (op/s)
host_tick_rate                              132547275                       # Simulator tick rate (ticks/s)
host_mem_usage                                2220388                       # Number of bytes of host memory used
host_seconds                                  3168.74                       # Real time elapsed on the host
sim_insts                                   100000000                       # Number of instructions simulated
sim_ops                                     183042321                       # Number of ops (including micro ops) simulated
system.physmem.bytes_read::cpu.inst             51200                       # Number of bytes read from this memory
system.physmem.bytes_read::cpu.data           8721984                       # Number of bytes read from this memory
system.physmem.bytes_read::total              8773184                       # Number of bytes read from this memory
system.physmem.bytes_inst_read::cpu.inst        51200                       # Number of instructions bytes read from this memory
system.physmem.bytes_inst_read::total           51200                       # Number of instructions bytes read from this memory
system.physmem.bytes_written::writebacks      8383040                       # Number of bytes written to this memory
system.physmem.bytes_written::total           8383040                       # Number of bytes written to this memory
system.physmem.num_reads::cpu.inst                800                       # Number of read requests responded to by this memory
system.physmem.num_reads::cpu.data             136281                       # Number of read requests responded to by this memory
system.physmem.num_reads::total                137081                       # Number of read requests responded to by this memory
system.physmem.num_writes::writebacks          130985                       # Number of write requests responded to by this memory
system.physmem.num_writes::total               130985                       # Number of write requests responded to by this memory
system.physmem.bw_read::cpu.inst               121903                       # Total read bandwidth from this memory (bytes/s)
system.physmem.bw_read::cpu.data             20766267                       # Total read bandwidth from this memory (bytes/s)
system.physmem.bw_read::total                20888170                       # Total read bandwidth from this memory (bytes/s)
system.physmem.bw_inst_read::cpu.inst          121903                       # Instruction read bandwidth from this memory (bytes/s)
system.physmem.bw_inst_read::total             121903                       # Instruction read bandwidth from this memory (bytes/s)
system.physmem.bw_write::writebacks          19959272                       # Write bandwidth from this memory (bytes/s)
system.physmem.bw_write::total               19959272                       # Write bandwidth from this memory (bytes/s)
system.physmem.bw_total::writebacks          19959272                       # Total bandwidth to/from this memory (bytes/s)
system.physmem.bw_total::cpu.inst              121903                       # Total bandwidth to/from this memory (bytes/s)
system.physmem.bw_total::cpu.data            20766267                       # Total bandwidth to/from this memory (bytes/s)
system.physmem.bw_total::total               40847442                       # Total bandwidth to/from this memory (bytes/s)
system.l2.replacements                         135981                       # number of replacements
system.l2.tagsinuse                        987.434391                       # Cycle average of tags in use
system.l2.total_refs                           578593                       # Total number of references to valid blocks.
system.l2.sampled_refs                         136962                       # Sample count of references to valid blocks.
system.l2.avg_refs                           4.224478                       # Average number of references to valid blocks.
system.l2.warmup_cycle                    60092236000                       # Cycle when the warmup percentage was hit.
system.l2.occ_blocks::writebacks           461.723537                       # Average occupied blocks per requestor
system.l2.occ_blocks::cpu.inst             153.515066                       # Average occupied blocks per requestor
system.l2.occ_blocks::cpu.data             372.195788                       # Average occupied blocks per requestor
system.l2.occ_percent::writebacks            0.450902                       # Average percentage of cache occupancy
system.l2.occ_percent::cpu.inst              0.149917                       # Average percentage of cache occupancy
system.l2.occ_percent::cpu.data              0.363472                       # Average percentage of cache occupancy
system.l2.occ_percent::total                 0.964291                       # Average percentage of cache occupancy
system.l2.ReadReq_hits::cpu.inst               491847                       # number of ReadReq hits
system.l2.ReadReq_hits::cpu.data                11858                       # number of ReadReq hits
system.l2.ReadReq_hits::total                  503705                       # number of ReadReq hits
system.l2.Writeback_hits::writebacks           144771                       # number of Writeback hits
system.l2.Writeback_hits::total                144771                       # number of Writeback hits
system.l2.ReadExReq_hits::cpu.data               2987                       # number of ReadExReq hits
system.l2.ReadExReq_hits::total                  2987                       # number of ReadExReq hits
system.l2.demand_hits::cpu.inst                491847                       # number of demand (read+write) hits
system.l2.demand_hits::cpu.data                 14845                       # number of demand (read+write) hits
system.l2.demand_hits::total                   506692                       # number of demand (read+write) hits
system.l2.overall_hits::cpu.inst               491847                       # number of overall hits
system.l2.overall_hits::cpu.data                14845                       # number of overall hits
system.l2.overall_hits::total                  506692                       # number of overall hits
system.l2.ReadReq_misses::cpu.inst                800                       # number of ReadReq misses
system.l2.ReadReq_misses::cpu.data              66371                       # number of ReadReq misses
system.l2.ReadReq_misses::total                 67171                       # number of ReadReq misses
system.l2.ReadExReq_misses::cpu.data            69910                       # number of ReadExReq misses
system.l2.ReadExReq_misses::total               69910                       # number of ReadExReq misses
system.l2.demand_misses::cpu.inst                 800                       # number of demand (read+write) misses
system.l2.demand_misses::cpu.data              136281                       # number of demand (read+write) misses
system.l2.demand_misses::total                 137081                       # number of demand (read+write) misses
system.l2.overall_misses::cpu.inst                800                       # number of overall misses
system.l2.overall_misses::cpu.data             136281                       # number of overall misses
system.l2.overall_misses::total                137081                       # number of overall misses
system.l2.ReadReq_miss_latency::cpu.inst     42036500                       # number of ReadReq miss cycles
system.l2.ReadReq_miss_latency::cpu.data   3475645000                       # number of ReadReq miss cycles
system.l2.ReadReq_miss_latency::total      3517681500                       # number of ReadReq miss cycles
system.l2.ReadExReq_miss_latency::cpu.data   3645659500                       # number of ReadExReq miss cycles
system.l2.ReadExReq_miss_latency::total    3645659500                       # number of ReadExReq miss cycles
system.l2.demand_miss_latency::cpu.inst      42036500                       # number of demand (read+write) miss cycles
system.l2.demand_miss_latency::cpu.data    7121304500                       # number of demand (read+write) miss cycles
system.l2.demand_miss_latency::total       7163341000                       # number of demand (read+write) miss cycles
system.l2.overall_miss_latency::cpu.inst     42036500                       # number of overall miss cycles
system.l2.overall_miss_latency::cpu.data   7121304500                       # number of overall miss cycles
system.l2.overall_miss_latency::total      7163341000                       # number of overall miss cycles
system.l2.ReadReq_accesses::cpu.inst           492647                       # number of ReadReq accesses(hits+misses)
system.l2.ReadReq_accesses::cpu.data            78229                       # number of ReadReq accesses(hits+misses)
system.l2.ReadReq_accesses::total              570876                       # number of ReadReq accesses(hits+misses)
system.l2.Writeback_accesses::writebacks       144771                       # number of Writeback accesses(hits+misses)
system.l2.Writeback_accesses::total            144771                       # number of Writeback accesses(hits+misses)
system.l2.ReadExReq_accesses::cpu.data          72897                       # number of ReadExReq accesses(hits+misses)
system.l2.ReadExReq_accesses::total             72897                       # number of ReadExReq accesses(hits+misses)
system.l2.demand_accesses::cpu.inst            492647                       # number of demand (read+write) accesses
system.l2.demand_accesses::cpu.data            151126                       # number of demand (read+write) accesses
system.l2.demand_accesses::total               643773                       # number of demand (read+write) accesses
system.l2.overall_accesses::cpu.inst           492647                       # number of overall (read+write) accesses
system.l2.overall_accesses::cpu.data           151126                       # number of overall (read+write) accesses
system.l2.overall_accesses::total              643773                       # number of overall (read+write) accesses
system.l2.ReadReq_miss_rate::cpu.inst        0.001624                       # miss rate for ReadReq accesses
system.l2.ReadReq_miss_rate::cpu.data        0.848419                       # miss rate for ReadReq accesses
system.l2.ReadReq_miss_rate::total           0.117663                       # miss rate for ReadReq accesses
system.l2.ReadExReq_miss_rate::cpu.data      0.959024                       # miss rate for ReadExReq accesses
system.l2.ReadExReq_miss_rate::total         0.959024                       # miss rate for ReadExReq accesses
system.l2.demand_miss_rate::cpu.inst         0.001624                       # miss rate for demand accesses
system.l2.demand_miss_rate::cpu.data         0.901771                       # miss rate for demand accesses
system.l2.demand_miss_rate::total            0.212934                       # miss rate for demand accesses
system.l2.overall_miss_rate::cpu.inst        0.001624                       # miss rate for overall accesses
system.l2.overall_miss_rate::cpu.data        0.901771                       # miss rate for overall accesses
system.l2.overall_miss_rate::total           0.212934                       # miss rate for overall accesses
system.l2.ReadReq_avg_miss_latency::cpu.inst 52545.625000                       # average ReadReq miss latency
system.l2.ReadReq_avg_miss_latency::cpu.data 52366.922300                       # average ReadReq miss latency
system.l2.ReadReq_avg_miss_latency::total 52369.050632                       # average ReadReq miss latency
system.l2.ReadExReq_avg_miss_latency::cpu.data 52147.897297                       # average ReadExReq miss latency
system.l2.ReadExReq_avg_miss_latency::total 52147.897297                       # average ReadExReq miss latency
system.l2.demand_avg_miss_latency::cpu.inst 52545.625000                       # average overall miss latency
system.l2.demand_avg_miss_latency::cpu.data 52254.565934                       # average overall miss latency
system.l2.demand_avg_miss_latency::total 52256.264544                       # average overall miss latency
system.l2.overall_avg_miss_latency::cpu.inst 52545.625000                       # average overall miss latency
system.l2.overall_avg_miss_latency::cpu.data 52254.565934                       # average overall miss latency
system.l2.overall_avg_miss_latency::total 52256.264544                       # average overall miss latency
system.l2.blocked_cycles::no_mshrs                  0                       # number of cycles access was blocked
system.l2.blocked_cycles::no_targets                0                       # number of cycles access was blocked
system.l2.blocked::no_mshrs                         0                       # number of cycles access was blocked
system.l2.blocked::no_targets                       0                       # number of cycles access was blocked
system.l2.avg_blocked_cycles::no_mshrs            nan                       # average number of cycles each access was blocked
system.l2.avg_blocked_cycles::no_targets          nan                       # average number of cycles each access was blocked
system.l2.fast_writes                               0                       # number of fast writes performed
system.l2.cache_copies                              0                       # number of cache copies performed
system.l2.writebacks::writebacks               130985                       # number of writebacks
system.l2.writebacks::total                    130985                       # number of writebacks
system.l2.ReadReq_mshr_misses::cpu.inst           800                       # number of ReadReq MSHR misses
system.l2.ReadReq_mshr_misses::cpu.data         66371                       # number of ReadReq MSHR misses
system.l2.ReadReq_mshr_misses::total            67171                       # number of ReadReq MSHR misses
system.l2.ReadExReq_mshr_misses::cpu.data        69910                       # number of ReadExReq MSHR misses
system.l2.ReadExReq_mshr_misses::total          69910                       # number of ReadExReq MSHR misses
system.l2.demand_mshr_misses::cpu.inst            800                       # number of demand (read+write) MSHR misses
system.l2.demand_mshr_misses::cpu.data         136281                       # number of demand (read+write) MSHR misses
system.l2.demand_mshr_misses::total            137081                       # number of demand (read+write) MSHR misses
system.l2.overall_mshr_misses::cpu.inst           800                       # number of overall MSHR misses
system.l2.overall_mshr_misses::cpu.data        136281                       # number of overall MSHR misses
system.l2.overall_mshr_misses::total           137081                       # number of overall MSHR misses
system.l2.ReadReq_mshr_miss_latency::cpu.inst     32243500                       # number of ReadReq MSHR miss cycles
system.l2.ReadReq_mshr_miss_latency::cpu.data   2669250000                       # number of ReadReq MSHR miss cycles
system.l2.ReadReq_mshr_miss_latency::total   2701493500                       # number of ReadReq MSHR miss cycles
system.l2.ReadExReq_mshr_miss_latency::cpu.data   2796421500                       # number of ReadExReq MSHR miss cycles
system.l2.ReadExReq_mshr_miss_latency::total   2796421500                       # number of ReadExReq MSHR miss cycles
system.l2.demand_mshr_miss_latency::cpu.inst     32243500                       # number of demand (read+write) MSHR miss cycles
system.l2.demand_mshr_miss_latency::cpu.data   5465671500                       # number of demand (read+write) MSHR miss cycles
system.l2.demand_mshr_miss_latency::total   5497915000                       # number of demand (read+write) MSHR miss cycles
system.l2.overall_mshr_miss_latency::cpu.inst     32243500                       # number of overall MSHR miss cycles
system.l2.overall_mshr_miss_latency::cpu.data   5465671500                       # number of overall MSHR miss cycles
system.l2.overall_mshr_miss_latency::total   5497915000                       # number of overall MSHR miss cycles
system.l2.ReadReq_mshr_miss_rate::cpu.inst     0.001624                       # mshr miss rate for ReadReq accesses
system.l2.ReadReq_mshr_miss_rate::cpu.data     0.848419                       # mshr miss rate for ReadReq accesses
system.l2.ReadReq_mshr_miss_rate::total      0.117663                       # mshr miss rate for ReadReq accesses
system.l2.ReadExReq_mshr_miss_rate::cpu.data     0.959024                       # mshr miss rate for ReadExReq accesses
system.l2.ReadExReq_mshr_miss_rate::total     0.959024                       # mshr miss rate for ReadExReq accesses
system.l2.demand_mshr_miss_rate::cpu.inst     0.001624                       # mshr miss rate for demand accesses
system.l2.demand_mshr_miss_rate::cpu.data     0.901771                       # mshr miss rate for demand accesses
system.l2.demand_mshr_miss_rate::total       0.212934                       # mshr miss rate for demand accesses
system.l2.overall_mshr_miss_rate::cpu.inst     0.001624                       # mshr miss rate for overall accesses
system.l2.overall_mshr_miss_rate::cpu.data     0.901771                       # mshr miss rate for overall accesses
system.l2.overall_mshr_miss_rate::total      0.212934                       # mshr miss rate for overall accesses
system.l2.ReadReq_avg_mshr_miss_latency::cpu.inst 40304.375000                       # average ReadReq mshr miss latency
system.l2.ReadReq_avg_mshr_miss_latency::cpu.data 40217.112896                       # average ReadReq mshr miss latency
system.l2.ReadReq_avg_mshr_miss_latency::total 40218.152179                       # average ReadReq mshr miss latency
system.l2.ReadExReq_avg_mshr_miss_latency::cpu.data 40000.307538                       # average ReadExReq mshr miss latency
system.l2.ReadExReq_avg_mshr_miss_latency::total 40000.307538                       # average ReadExReq mshr miss latency
system.l2.demand_avg_mshr_miss_latency::cpu.inst 40304.375000                       # average overall mshr miss latency
system.l2.demand_avg_mshr_miss_latency::cpu.data 40105.895172                       # average overall mshr miss latency
system.l2.demand_avg_mshr_miss_latency::total 40107.053494                       # average overall mshr miss latency
system.l2.overall_avg_mshr_miss_latency::cpu.inst 40304.375000                       # average overall mshr miss latency
system.l2.overall_avg_mshr_miss_latency::cpu.data 40105.895172                       # average overall mshr miss latency
system.l2.overall_avg_mshr_miss_latency::total 40107.053494                       # average overall mshr miss latency
system.l2.no_allocate_misses                        0                       # Number of misses that were no-allocate
system.cpu.branchPred.lookups                16476677                       # Number of BP lookups
system.cpu.branchPred.condPredicted          16476677                       # Number of conditional branches predicted
system.cpu.branchPred.condIncorrect           1112138                       # Number of conditional branches incorrect
system.cpu.branchPred.BTBLookups             11055978                       # Number of BTB lookups
system.cpu.branchPred.BTBHits                 9453821                       # Number of BTB hits
system.cpu.branchPred.BTBCorrect                    0                       # Number of correct BTB predictions (this stat may not work properly.
system.cpu.branchPred.BTBHitPct             85.508681                       # BTB Hit Percentage
system.cpu.branchPred.usedRAS                       0                       # Number of times the RAS was used to get a target.
system.cpu.branchPred.RASInCorrect                  0                       # Number of incorrect RAS predictions.
system.cpu.workload.num_syscalls                   25                       # Number of system calls
system.cpu.numCycles                        840014607                       # number of cpu cycles simulated
system.cpu.numWorkItemsStarted                      0                       # number of work items this cpu started
system.cpu.numWorkItemsCompleted                    0                       # number of work items this cpu completed
system.cpu.fetch.icacheStallCycles           24850941                       # Number of cycles fetch is stalled on an Icache miss
system.cpu.fetch.Insts                      100762098                       # Number of instructions fetch has processed
system.cpu.fetch.Branches                    16476677                       # Number of branches that fetch encountered
system.cpu.fetch.predictedBranches            9453821                       # Number of branches that fetch has predicted taken
system.cpu.fetch.Cycles                     188365770                       # Number of cycles fetch has run and was not squashing or blocked
system.cpu.fetch.SquashCycles                 2224278                       # Number of cycles fetch has spent squashing
system.cpu.fetch.BlockedCycles              617247897                       # Number of cycles fetch has spent blocked
system.cpu.fetch.CacheLines                  14080068                       # Number of cache lines fetched
system.cpu.fetch.IcacheSquashes                 18346                       # Number of outstanding Icache misses that were squashed
system.cpu.fetch.rateDist::samples          831576747                       # Number of instructions fetched each cycle (Total)
system.cpu.fetch.rateDist::mean              0.221450                       # Number of instructions fetched each cycle (Total)
system.cpu.fetch.rateDist::stdev             0.415223                       # Number of instructions fetched each cycle (Total)
system.cpu.fetch.rateDist::underflows               0      0.00%      0.00% # Number of instructions fetched each cycle (Total)
system.cpu.fetch.rateDist::0                647424204     77.86%     77.86% # Number of instructions fetched each cycle (Total)
system.cpu.fetch.rateDist::1                184152543     22.14%    100.00% # Number of instructions fetched each cycle (Total)
system.cpu.fetch.rateDist::overflows                0      0.00%    100.00% # Number of instructions fetched each cycle (Total)
system.cpu.fetch.rateDist::min_value                0                       # Number of instructions fetched each cycle (Total)
system.cpu.fetch.rateDist::max_value                1                       # Number of instructions fetched each cycle (Total)
system.cpu.fetch.rateDist::total            831576747                       # Number of instructions fetched each cycle (Total)
system.cpu.fetch.branchRate                  0.019615                       # Number of branch fetches per cycle
system.cpu.fetch.rate                        0.119953                       # Number of inst fetches per cycle
system.cpu.decode.IdleCycles                152280157                       # Number of cycles decode is idle
system.cpu.decode.BlockedCycles             494128397                       # Number of cycles decode is blocked
system.cpu.decode.RunCycles                 136058879                       # Number of cycles decode is running
system.cpu.decode.UnblockCycles              47997175                       # Number of cycles decode is unblocking
system.cpu.decode.SquashCycles                1112139                       # Number of cycles decode is squashing
system.cpu.decode.DecodedInsts              184056054                       # Number of instructions handled by decode
system.cpu.rename.SquashCycles                1112139                       # Number of cycles rename is squashing
system.cpu.rename.IdleCycles                208425749                       # Number of cycles rename is idle
system.cpu.rename.BlockCycles               438355453                       # Number of cycles rename is blocking
system.cpu.rename.serializeStallCycles           1412                       # count of cycles rename stalled for serializing inst
system.cpu.rename.RunCycles                  52718127                       # Number of cycles rename is running
system.cpu.rename.UnblockCycles             130963867                       # Number of cycles rename is unblocking
system.cpu.rename.RenamedInsts              183681928                       # Number of instructions processed by rename
system.cpu.rename.IQFullEvents               39104527                       # Number of times rename has blocked due to IQ full
system.cpu.rename.RenamedOperands           202320172                       # Number of destination operands rename has renamed
system.cpu.rename.RenameLookups             439281528                       # Number of register rename lookups that rename has made
system.cpu.rename.int_rename_lookups        310367498                       # Number of integer rename lookups
system.cpu.rename.fp_rename_lookups         128914030                       # Number of floating rename lookups
system.cpu.rename.CommittedMaps             201638970                       # Number of HB maps that are committed
system.cpu.rename.UndoneMaps                   681201                       # Number of HB maps that are undone due to squashing
system.cpu.rename.serializingInsts                 87                       # count of serializing insts renamed
system.cpu.rename.tempSerializingInsts             66                       # count of temporary serializing insts renamed
system.cpu.rename.skidInsts                 131061177                       # count of insts added to the skid buffer
system.cpu.memDep0.insertedLoads             21430118                       # Number of loads inserted to the mem dependence unit.
system.cpu.memDep0.insertedStores            11125591                       # Number of stores inserted to the mem dependence unit.
system.cpu.memDep0.conflictingLoads                 0                       # Number of conflicting loads.
system.cpu.memDep0.conflictingStores                0                       # Number of conflicting stores.
system.cpu.iq.iqInstsAdded                  183042235                       # Number of instructions added to the IQ (excludes non-spec)
system.cpu.iq.iqNonSpecInstsAdded                  86                       # Number of non-speculative instructions added to the IQ
system.cpu.iq.iqInstsIssued                 183042321                       # Number of instructions issued
system.cpu.iq.issued_per_cycle::samples     831576747                       # Number of insts issued each cycle
system.cpu.iq.issued_per_cycle::mean         0.220115                       # Number of insts issued each cycle
system.cpu.iq.issued_per_cycle::stdev        0.414324                       # Number of insts issued each cycle
system.cpu.iq.issued_per_cycle::underflows            0      0.00%      0.00% # Number of insts issued each cycle
system.cpu.iq.issued_per_cycle::0           648534426     77.99%     77.99% # Number of insts issued each cycle
system.cpu.iq.issued_per_cycle::1           183042321     22.01%    100.00% # Number of insts issued each cycle
system.cpu.iq.issued_per_cycle::overflows            0      0.00%    100.00% # Number of insts issued each cycle
system.cpu.iq.issued_per_cycle::min_value            0                       # Number of insts issued each cycle
system.cpu.iq.issued_per_cycle::max_value            1                       # Number of insts issued each cycle
system.cpu.iq.issued_per_cycle::total       831576747                       # Number of insts issued each cycle
system.cpu.iq.fu_full::No_OpClass                   0                       # attempts to use FU when none available
system.cpu.iq.fu_full::IntAlu                       0                       # attempts to use FU when none available
system.cpu.iq.fu_full::IntMult                      0                       # attempts to use FU when none available
system.cpu.iq.fu_full::IntDiv                       0                       # attempts to use FU when none available
system.cpu.iq.fu_full::FloatAdd                     0                       # attempts to use FU when none available
system.cpu.iq.fu_full::FloatCmp                     0                       # attempts to use FU when none available
system.cpu.iq.fu_full::FloatCvt                     0                       # attempts to use FU when none available
system.cpu.iq.fu_full::FloatMult                    0                       # attempts to use FU when none available
system.cpu.iq.fu_full::FloatDiv                     0                       # attempts to use FU when none available
system.cpu.iq.fu_full::FloatSqrt                    0                       # attempts to use FU when none available
system.cpu.iq.fu_full::SimdAdd                      0                       # attempts to use FU when none available
system.cpu.iq.fu_full::SimdAddAcc                   0                       # attempts to use FU when none available
system.cpu.iq.fu_full::SimdAlu                      0                       # attempts to use FU when none available
system.cpu.iq.fu_full::SimdCmp                      0                       # attempts to use FU when none available
system.cpu.iq.fu_full::SimdCvt                      0                       # attempts to use FU when none available
system.cpu.iq.fu_full::SimdMisc                     0                       # attempts to use FU when none available
system.cpu.iq.fu_full::SimdMult                     0                       # attempts to use FU when none available
system.cpu.iq.fu_full::SimdMultAcc                  0                       # attempts to use FU when none available
system.cpu.iq.fu_full::SimdShift                    0                       # attempts to use FU when none available
system.cpu.iq.fu_full::SimdShiftAcc                 0                       # attempts to use FU when none available
system.cpu.iq.fu_full::SimdSqrt                     0                       # attempts to use FU when none available
system.cpu.iq.fu_full::SimdFloatAdd                 0                       # attempts to use FU when none available
system.cpu.iq.fu_full::SimdFloatAlu                 0                       # attempts to use FU when none available
system.cpu.iq.fu_full::SimdFloatCmp                 0                       # attempts to use FU when none available
system.cpu.iq.fu_full::SimdFloatCvt                 0                       # attempts to use FU when none available
system.cpu.iq.fu_full::SimdFloatDiv                 0                       # attempts to use FU when none available
system.cpu.iq.fu_full::SimdFloatMisc                0                       # attempts to use FU when none available
system.cpu.iq.fu_full::SimdFloatMult                0                       # attempts to use FU when none available
system.cpu.iq.fu_full::SimdFloatMultAcc             0                       # attempts to use FU when none available
system.cpu.iq.fu_full::SimdFloatSqrt                0                       # attempts to use FU when none available
system.cpu.iq.fu_full::MemRead                      0                       # attempts to use FU when none available
system.cpu.iq.fu_full::MemWrite                     0                       # attempts to use FU when none available
system.cpu.iq.fu_full::IprAccess                    0                       # attempts to use FU when none available
system.cpu.iq.fu_full::InstPrefetch                 0                       # attempts to use FU when none available
system.cpu.iq.FU_type_0::No_OpClass            366331      0.20%      0.20% # Type of FU issued
system.cpu.iq.FU_type_0::IntAlu             106543591     58.21%     58.41% # Type of FU issued
system.cpu.iq.FU_type_0::IntMult                    0      0.00%     58.41% # Type of FU issued
system.cpu.iq.FU_type_0::IntDiv                     0      0.00%     58.41% # Type of FU issued
system.cpu.iq.FU_type_0::FloatAdd            43576690     23.81%     82.21% # Type of FU issued
system.cpu.iq.FU_type_0::FloatCmp                   0      0.00%     82.21% # Type of FU issued
system.cpu.iq.FU_type_0::FloatCvt                   0      0.00%     82.21% # Type of FU issued
system.cpu.iq.FU_type_0::FloatMult                  0      0.00%     82.21% # Type of FU issued
system.cpu.iq.FU_type_0::FloatDiv                   0      0.00%     82.21% # Type of FU issued
system.cpu.iq.FU_type_0::FloatSqrt                  0      0.00%     82.21% # Type of FU issued
system.cpu.iq.FU_type_0::SimdAdd                    0      0.00%     82.21% # Type of FU issued
system.cpu.iq.FU_type_0::SimdAddAcc                 0      0.00%     82.21% # Type of FU issued
system.cpu.iq.FU_type_0::SimdAlu                    0      0.00%     82.21% # Type of FU issued
system.cpu.iq.FU_type_0::SimdCmp                    0      0.00%     82.21% # Type of FU issued
system.cpu.iq.FU_type_0::SimdCvt                    0      0.00%     82.21% # Type of FU issued
system.cpu.iq.FU_type_0::SimdMisc                   0      0.00%     82.21% # Type of FU issued
system.cpu.iq.FU_type_0::SimdMult                   0      0.00%     82.21% # Type of FU issued
system.cpu.iq.FU_type_0::SimdMultAcc                0      0.00%     82.21% # Type of FU issued
system.cpu.iq.FU_type_0::SimdShift                  0      0.00%     82.21% # Type of FU issued
system.cpu.iq.FU_type_0::SimdShiftAcc               0      0.00%     82.21% # Type of FU issued
system.cpu.iq.FU_type_0::SimdSqrt                   0      0.00%     82.21% # Type of FU issued
system.cpu.iq.FU_type_0::SimdFloatAdd               0      0.00%     82.21% # Type of FU issued
system.cpu.iq.FU_type_0::SimdFloatAlu               0      0.00%     82.21% # Type of FU issued
system.cpu.iq.FU_type_0::SimdFloatCmp               0      0.00%     82.21% # Type of FU issued
system.cpu.iq.FU_type_0::SimdFloatCvt               0      0.00%     82.21% # Type of FU issued
system.cpu.iq.FU_type_0::SimdFloatDiv               0      0.00%     82.21% # Type of FU issued
system.cpu.iq.FU_type_0::SimdFloatMisc              0      0.00%     82.21% # Type of FU issued
system.cpu.iq.FU_type_0::SimdFloatMult              0      0.00%     82.21% # Type of FU issued
system.cpu.iq.FU_type_0::SimdFloatMultAcc            0      0.00%     82.21% # Type of FU issued
system.cpu.iq.FU_type_0::SimdFloatSqrt              0      0.00%     82.21% # Type of FU issued
system.cpu.iq.FU_type_0::MemRead             21430118     11.71%     93.92% # Type of FU issued
system.cpu.iq.FU_type_0::MemWrite            11125591      6.08%    100.00% # Type of FU issued
system.cpu.iq.FU_type_0::IprAccess                  0      0.00%    100.00% # Type of FU issued
system.cpu.iq.FU_type_0::InstPrefetch               0      0.00%    100.00% # Type of FU issued
system.cpu.iq.FU_type_0::total              183042321                       # Type of FU issued
system.cpu.iq.rate                           0.217904                       # Inst issue rate
system.cpu.iq.fu_busy_cnt                           0                       # FU busy when requested
system.cpu.iq.fu_busy_rate                          0                       # FU busy rate (busy events/executed inst)
system.cpu.iq.int_inst_queue_reads         1089290623                       # Number of integer instruction queue reads
system.cpu.iq.int_inst_queue_writes         128856938                       # Number of integer instruction queue writes
system.cpu.iq.int_inst_queue_wakeup_accesses    128856938                       # Number of integer instruction queue wakeup accesses
system.cpu.iq.fp_inst_queue_reads           108370766                       # Number of floating instruction queue reads
system.cpu.iq.fp_inst_queue_writes           54185383                       # Number of floating instruction queue writes
system.cpu.iq.fp_inst_queue_wakeup_accesses     54185383                       # Number of floating instruction queue wakeup accesses
system.cpu.iq.int_alu_accesses              128490607                       # Number of integer alu accesses
system.cpu.iq.fp_alu_accesses                54185383                       # Number of floating point alu accesses
system.cpu.iew.lsq.thread0.forwLoads           235080                       # Number of loads that had data forwarded from stores
system.cpu.iew.lsq.thread0.invAddrLoads             0                       # Number of loads ignored due to an invalid address
system.cpu.iew.lsq.thread0.squashedLoads            0                       # Number of loads squashed
system.cpu.iew.lsq.thread0.ignoredResponses            0                       # Number of memory responses ignored because the instruction is squashed
system.cpu.iew.lsq.thread0.memOrderViolation            0                       # Number of memory ordering violations
system.cpu.iew.lsq.thread0.squashedStores            0                       # Number of stores squashed
system.cpu.iew.lsq.thread0.invAddrSwpfs             0                       # Number of software prefetches ignored due to an invalid address
system.cpu.iew.lsq.thread0.blockedLoads             0                       # Number of blocked loads due to partial load-store forwarding
system.cpu.iew.lsq.thread0.rescheduledLoads            0                       # Number of loads that were rescheduled
system.cpu.iew.lsq.thread0.cacheBlocked             0                       # Number of times an access to memory failed due to the cache being blocked
system.cpu.iew.iewIdleCycles                        0                       # Number of cycles IEW is idle
system.cpu.iew.iewSquashCycles                1112139                       # Number of cycles IEW is squashing
system.cpu.iew.iewBlockCycles                76071651                       # Number of cycles IEW is blocking
system.cpu.iew.iewUnblockCycles              14607444                       # Number of cycles IEW is unblocking
system.cpu.iew.iewDispatchedInsts           183042321                       # Number of instructions dispatched to IQ
system.cpu.iew.iewDispSquashedInsts                 2                       # Number of squashed instructions skipped by dispatch
system.cpu.iew.iewDispLoadInsts              21430118                       # Number of dispatched load instructions
system.cpu.iew.iewDispStoreInsts             11125591                       # Number of dispatched store instructions
system.cpu.iew.iewDispNonSpecInsts                 86                       # Number of dispatched non-speculative instructions
system.cpu.iew.iewIQFullEvents                      0                       # Number of times the IQ has become full, causing a stall
system.cpu.iew.iewLSQFullEvents                     0                       # Number of times the LSQ has become full, causing a stall
system.cpu.iew.memOrderViolationEvents              0                       # Number of memory order violations
system.cpu.iew.predictedTakenIncorrect         638790                       # Number of branches that were predicted taken incorrectly
system.cpu.iew.predictedNotTakenIncorrect       473348                       # Number of branches that were predicted not taken incorrectly
system.cpu.iew.branchMispredicts              1112138                       # Number of branch mispredicts detected at execute
system.cpu.iew.iewExecutedInsts             183042321                       # Number of executed instructions
system.cpu.iew.iewExecLoadInsts              21430118                       # Number of load instructions executed
system.cpu.iew.iewExecSquashedInsts                 0                       # Number of squashed instructions skipped in execute
system.cpu.iew.exec_swp                             0                       # number of swp insts executed
system.cpu.iew.exec_nop                             0                       # number of nop insts executed
system.cpu.iew.exec_refs                     32555709                       # number of memory reference insts executed
system.cpu.iew.exec_branches                 16476661                       # Number of branches executed
system.cpu.iew.exec_stores                   11125591                       # Number of stores executed
system.cpu.iew.exec_rate                     0.217904                       # Inst execution rate
system.cpu.iew.wb_sent                      183042321                       # cumulative count of insts sent to commit
system.cpu.iew.wb_count                     183042321                       # cumulative count of insts written-back
system.cpu.iew.wb_producers                         0                       # num instructions producing a value
system.cpu.iew.wb_consumers                         0                       # num instructions consuming a value
system.cpu.iew.wb_penalized                         0                       # number of instrctions required to write to 'other' IQ
system.cpu.iew.wb_rate                       0.217904                       # insts written-back per cycle
system.cpu.iew.wb_fanout                          nan                       # average fanout of values written-back
system.cpu.iew.wb_penalized_rate                    0                       # fraction of instructions written-back that wrote to 'other' IQ
system.cpu.commit.commitNonSpecStalls              86                       # The number of times commit has been forced to stall to communicate backwards
system.cpu.commit.branchMispredicts           1112138                       # The number of times a branch was mispredicted
system.cpu.commit.committed_per_cycle::samples    830464608                       # Number of insts commited each cycle
system.cpu.commit.committed_per_cycle::mean     0.220410                       # Number of insts commited each cycle
system.cpu.commit.committed_per_cycle::stdev     0.414523                       # Number of insts commited each cycle
system.cpu.commit.committed_per_cycle::underflows            0      0.00%      0.00% # Number of insts commited each cycle
system.cpu.commit.committed_per_cycle::0    647422287     77.96%     77.96% # Number of insts commited each cycle
system.cpu.commit.committed_per_cycle::1    183042321     22.04%    100.00% # Number of insts commited each cycle
system.cpu.commit.committed_per_cycle::overflows            0      0.00%    100.00% # Number of insts commited each cycle
system.cpu.commit.committed_per_cycle::min_value            0                       # Number of insts commited each cycle
system.cpu.commit.committed_per_cycle::max_value            1                       # Number of insts commited each cycle
system.cpu.commit.committed_per_cycle::total    830464608                       # Number of insts commited each cycle
system.cpu.commit.committedInsts            100000000                       # Number of instructions committed
system.cpu.commit.committedOps              183042321                       # Number of ops (including micro ops) committed
system.cpu.commit.swp_count                         0                       # Number of s/w prefetches committed
system.cpu.commit.refs                       32555709                       # Number of memory references committed
system.cpu.commit.loads                      21430118                       # Number of loads committed
system.cpu.commit.membars                           0                       # Number of memory barriers committed
system.cpu.commit.branches                   16476661                       # Number of branches committed
system.cpu.commit.fp_insts                   54185383                       # Number of committed floating point instructions.
system.cpu.commit.int_insts                 140801028                       # Number of committed integer instructions.
system.cpu.commit.function_calls                    0                       # Number of function calls committed.
system.cpu.commit.bw_lim_events             183042321                       # number cycles where commit BW limit reached
system.cpu.commit.bw_limited                        0                       # number of insts not committed due to BW limits
system.cpu.rob.rob_reads                    830464608                       # The number of ROB reads
system.cpu.rob.rob_writes                   367196780                       # The number of ROB writes
system.cpu.timesIdled                          532153                       # Number of times that the entire CPU went into an idle state and unscheduled itself
system.cpu.idleCycles                         8437860                       # Total number of cycles that the CPU has spent unscheduled due to idling
system.cpu.committedInsts                   100000000                       # Number of Instructions Simulated
system.cpu.committedOps                     183042321                       # Number of Ops (including micro ops) Simulated
system.cpu.committedInsts_total             100000000                       # Number of Instructions Simulated
system.cpu.cpi                               8.400146                       # CPI: Cycles Per Instruction
system.cpu.cpi_total                         8.400146                       # CPI: Total CPI of All Threads
system.cpu.ipc                               0.119046                       # IPC: Instructions Per Cycle
system.cpu.ipc_total                         0.119046                       # IPC: Total IPC of All Threads
system.cpu.int_regfile_reads                275535155                       # number of integer regfile reads
system.cpu.int_regfile_writes               151729369                       # number of integer regfile writes
system.cpu.fp_regfile_reads                  94062939                       # number of floating regfile reads
system.cpu.fp_regfile_writes                 49909566                       # number of floating regfile writes
system.cpu.misc_regfile_reads                68779520                       # number of misc regfile reads
system.cpu.misc_regfile_writes                     61                       # number of misc regfile writes
system.cpu.itb_walker_cache.replacements            0                       # number of replacements
system.cpu.itb_walker_cache.tagsinuse               0                       # Cycle average of tags in use
system.cpu.itb_walker_cache.total_refs              0                       # Total number of references to valid blocks.
system.cpu.itb_walker_cache.sampled_refs            0                       # Sample count of references to valid blocks.
system.cpu.itb_walker_cache.avg_refs              nan                       # Average number of references to valid blocks.
system.cpu.itb_walker_cache.warmup_cycle            0                       # Cycle when the warmup percentage was hit.
system.cpu.itb_walker_cache.blocked_cycles::no_mshrs            0                       # number of cycles access was blocked
system.cpu.itb_walker_cache.blocked_cycles::no_targets            0                       # number of cycles access was blocked
system.cpu.itb_walker_cache.blocked::no_mshrs            0                       # number of cycles access was blocked
system.cpu.itb_walker_cache.blocked::no_targets            0                       # number of cycles access was blocked
system.cpu.itb_walker_cache.avg_blocked_cycles::no_mshrs          nan                       # average number of cycles each access was blocked
system.cpu.itb_walker_cache.avg_blocked_cycles::no_targets          nan                       # average number of cycles each access was blocked
system.cpu.itb_walker_cache.fast_writes             0                       # number of fast writes performed
system.cpu.itb_walker_cache.cache_copies            0                       # number of cache copies performed
system.cpu.itb_walker_cache.no_allocate_misses            0                       # Number of misses that were no-allocate
system.cpu.dtb_walker_cache.replacements            0                       # number of replacements
system.cpu.dtb_walker_cache.tagsinuse               0                       # Cycle average of tags in use
system.cpu.dtb_walker_cache.total_refs              0                       # Total number of references to valid blocks.
system.cpu.dtb_walker_cache.sampled_refs            0                       # Sample count of references to valid blocks.
system.cpu.dtb_walker_cache.avg_refs              nan                       # Average number of references to valid blocks.
system.cpu.dtb_walker_cache.warmup_cycle            0                       # Cycle when the warmup percentage was hit.
system.cpu.dtb_walker_cache.blocked_cycles::no_mshrs            0                       # number of cycles access was blocked
system.cpu.dtb_walker_cache.blocked_cycles::no_targets            0                       # number of cycles access was blocked
system.cpu.dtb_walker_cache.blocked::no_mshrs            0                       # number of cycles access was blocked
system.cpu.dtb_walker_cache.blocked::no_targets            0                       # number of cycles access was blocked
system.cpu.dtb_walker_cache.avg_blocked_cycles::no_mshrs          nan                       # average number of cycles each access was blocked
system.cpu.dtb_walker_cache.avg_blocked_cycles::no_targets          nan                       # average number of cycles each access was blocked
system.cpu.dtb_walker_cache.fast_writes             0                       # number of fast writes performed
system.cpu.dtb_walker_cache.cache_copies            0                       # number of cache copies performed
system.cpu.dtb_walker_cache.no_allocate_misses            0                       # Number of misses that were no-allocate
system.cpu.icache.replacements                 492391                       # number of replacements
system.cpu.icache.tagsinuse                250.484968                       # Cycle average of tags in use
system.cpu.icache.total_refs                 13587390                       # Total number of references to valid blocks.
system.cpu.icache.sampled_refs                 492647                       # Sample count of references to valid blocks.
system.cpu.icache.avg_refs                  27.580377                       # Average number of references to valid blocks.
system.cpu.icache.warmup_cycle           295104653000                       # Cycle when the warmup percentage was hit.
system.cpu.icache.occ_blocks::cpu.inst     250.484968                       # Average occupied blocks per requestor
system.cpu.icache.occ_percent::cpu.inst      0.978457                       # Average percentage of cache occupancy
system.cpu.icache.occ_percent::total         0.978457                       # Average percentage of cache occupancy
system.cpu.icache.ReadReq_hits::cpu.inst     13587390                       # number of ReadReq hits
system.cpu.icache.ReadReq_hits::total        13587390                       # number of ReadReq hits
system.cpu.icache.demand_hits::cpu.inst      13587390                       # number of demand (read+write) hits
system.cpu.icache.demand_hits::total         13587390                       # number of demand (read+write) hits
system.cpu.icache.overall_hits::cpu.inst     13587390                       # number of overall hits
system.cpu.icache.overall_hits::total        13587390                       # number of overall hits
system.cpu.icache.ReadReq_misses::cpu.inst       492678                       # number of ReadReq misses
system.cpu.icache.ReadReq_misses::total        492678                       # number of ReadReq misses
system.cpu.icache.demand_misses::cpu.inst       492678                       # number of demand (read+write) misses
system.cpu.icache.demand_misses::total         492678                       # number of demand (read+write) misses
system.cpu.icache.overall_misses::cpu.inst       492678                       # number of overall misses
system.cpu.icache.overall_misses::total        492678                       # number of overall misses
system.cpu.icache.ReadReq_miss_latency::cpu.inst   6439535500                       # number of ReadReq miss cycles
system.cpu.icache.ReadReq_miss_latency::total   6439535500                       # number of ReadReq miss cycles
system.cpu.icache.demand_miss_latency::cpu.inst   6439535500                       # number of demand (read+write) miss cycles
system.cpu.icache.demand_miss_latency::total   6439535500                       # number of demand (read+write) miss cycles
system.cpu.icache.overall_miss_latency::cpu.inst   6439535500                       # number of overall miss cycles
system.cpu.icache.overall_miss_latency::total   6439535500                       # number of overall miss cycles
system.cpu.icache.ReadReq_accesses::cpu.inst     14080068                       # number of ReadReq accesses(hits+misses)
system.cpu.icache.ReadReq_accesses::total     14080068                       # number of ReadReq accesses(hits+misses)
system.cpu.icache.demand_accesses::cpu.inst     14080068                       # number of demand (read+write) accesses
system.cpu.icache.demand_accesses::total     14080068                       # number of demand (read+write) accesses
system.cpu.icache.overall_accesses::cpu.inst     14080068                       # number of overall (read+write) accesses
system.cpu.icache.overall_accesses::total     14080068                       # number of overall (read+write) accesses
system.cpu.icache.ReadReq_miss_rate::cpu.inst     0.034991                       # miss rate for ReadReq accesses
system.cpu.icache.ReadReq_miss_rate::total     0.034991                       # miss rate for ReadReq accesses
system.cpu.icache.demand_miss_rate::cpu.inst     0.034991                       # miss rate for demand accesses
system.cpu.icache.demand_miss_rate::total     0.034991                       # miss rate for demand accesses
system.cpu.icache.overall_miss_rate::cpu.inst     0.034991                       # miss rate for overall accesses
system.cpu.icache.overall_miss_rate::total     0.034991                       # miss rate for overall accesses
system.cpu.icache.ReadReq_avg_miss_latency::cpu.inst 13070.475036                       # average ReadReq miss latency
system.cpu.icache.ReadReq_avg_miss_latency::total 13070.475036                       # average ReadReq miss latency
system.cpu.icache.demand_avg_miss_latency::cpu.inst 13070.475036                       # average overall miss latency
system.cpu.icache.demand_avg_miss_latency::total 13070.475036                       # average overall miss latency
system.cpu.icache.overall_avg_miss_latency::cpu.inst 13070.475036                       # average overall miss latency
system.cpu.icache.overall_avg_miss_latency::total 13070.475036                       # average overall miss latency
system.cpu.icache.blocked_cycles::no_mshrs            0                       # number of cycles access was blocked
system.cpu.icache.blocked_cycles::no_targets            0                       # number of cycles access was blocked
system.cpu.icache.blocked::no_mshrs                 0                       # number of cycles access was blocked
system.cpu.icache.blocked::no_targets               0                       # number of cycles access was blocked
system.cpu.icache.avg_blocked_cycles::no_mshrs          nan                       # average number of cycles each access was blocked
system.cpu.icache.avg_blocked_cycles::no_targets          nan                       # average number of cycles each access was blocked
system.cpu.icache.fast_writes                       0                       # number of fast writes performed
system.cpu.icache.cache_copies                      0                       # number of cache copies performed
system.cpu.icache.ReadReq_mshr_hits::cpu.inst           31                       # number of ReadReq MSHR hits
system.cpu.icache.ReadReq_mshr_hits::total           31                       # number of ReadReq MSHR hits
system.cpu.icache.demand_mshr_hits::cpu.inst           31                       # number of demand (read+write) MSHR hits
system.cpu.icache.demand_mshr_hits::total           31                       # number of demand (read+write) MSHR hits
system.cpu.icache.overall_mshr_hits::cpu.inst           31                       # number of overall MSHR hits
system.cpu.icache.overall_mshr_hits::total           31                       # number of overall MSHR hits
system.cpu.icache.ReadReq_mshr_misses::cpu.inst       492647                       # number of ReadReq MSHR misses
system.cpu.icache.ReadReq_mshr_misses::total       492647                       # number of ReadReq MSHR misses
system.cpu.icache.demand_mshr_misses::cpu.inst       492647                       # number of demand (read+write) MSHR misses
system.cpu.icache.demand_mshr_misses::total       492647                       # number of demand (read+write) MSHR misses
system.cpu.icache.overall_mshr_misses::cpu.inst       492647                       # number of overall MSHR misses
system.cpu.icache.overall_mshr_misses::total       492647                       # number of overall MSHR misses
system.cpu.icache.ReadReq_mshr_miss_latency::cpu.inst   5453154500                       # number of ReadReq MSHR miss cycles
system.cpu.icache.ReadReq_mshr_miss_latency::total   5453154500                       # number of ReadReq MSHR miss cycles
system.cpu.icache.demand_mshr_miss_latency::cpu.inst   5453154500                       # number of demand (read+write) MSHR miss cycles
system.cpu.icache.demand_mshr_miss_latency::total   5453154500                       # number of demand (read+write) MSHR miss cycles
system.cpu.icache.overall_mshr_miss_latency::cpu.inst   5453154500                       # number of overall MSHR miss cycles
system.cpu.icache.overall_mshr_miss_latency::total   5453154500                       # number of overall MSHR miss cycles
system.cpu.icache.ReadReq_mshr_miss_rate::cpu.inst     0.034989                       # mshr miss rate for ReadReq accesses
system.cpu.icache.ReadReq_mshr_miss_rate::total     0.034989                       # mshr miss rate for ReadReq accesses
system.cpu.icache.demand_mshr_miss_rate::cpu.inst     0.034989                       # mshr miss rate for demand accesses
system.cpu.icache.demand_mshr_miss_rate::total     0.034989                       # mshr miss rate for demand accesses
system.cpu.icache.overall_mshr_miss_rate::cpu.inst     0.034989                       # mshr miss rate for overall accesses
system.cpu.icache.overall_mshr_miss_rate::total     0.034989                       # mshr miss rate for overall accesses
system.cpu.icache.ReadReq_avg_mshr_miss_latency::cpu.inst 11069.091053                       # average ReadReq mshr miss latency
system.cpu.icache.ReadReq_avg_mshr_miss_latency::total 11069.091053                       # average ReadReq mshr miss latency
system.cpu.icache.demand_avg_mshr_miss_latency::cpu.inst 11069.091053                       # average overall mshr miss latency
system.cpu.icache.demand_avg_mshr_miss_latency::total 11069.091053                       # average overall mshr miss latency
system.cpu.icache.overall_avg_mshr_miss_latency::cpu.inst 11069.091053                       # average overall mshr miss latency
system.cpu.icache.overall_avg_mshr_miss_latency::total 11069.091053                       # average overall mshr miss latency
system.cpu.icache.no_allocate_misses                0                       # Number of misses that were no-allocate
system.cpu.dcache.replacements                 150870                       # number of replacements
system.cpu.dcache.tagsinuse                254.891509                       # Cycle average of tags in use
system.cpu.dcache.total_refs                 32202257                       # Total number of references to valid blocks.
system.cpu.dcache.sampled_refs                 151126                       # Sample count of references to valid blocks.
system.cpu.dcache.avg_refs                 213.082176                       # Average number of references to valid blocks.
system.cpu.dcache.warmup_cycle            14017441000                       # Cycle when the warmup percentage was hit.
system.cpu.dcache.occ_blocks::cpu.data     254.891509                       # Average occupied blocks per requestor
system.cpu.dcache.occ_percent::cpu.data      0.995670                       # Average percentage of cache occupancy
system.cpu.dcache.occ_percent::total         0.995670                       # Average percentage of cache occupancy
system.cpu.dcache.ReadReq_hits::cpu.data     21149563                       # number of ReadReq hits
system.cpu.dcache.ReadReq_hits::total        21149563                       # number of ReadReq hits
system.cpu.dcache.WriteReq_hits::cpu.data     11052694                       # number of WriteReq hits
system.cpu.dcache.WriteReq_hits::total       11052694                       # number of WriteReq hits
system.cpu.dcache.demand_hits::cpu.data      32202257                       # number of demand (read+write) hits
system.cpu.dcache.demand_hits::total         32202257                       # number of demand (read+write) hits
system.cpu.dcache.overall_hits::cpu.data     32202257                       # number of overall hits
system.cpu.dcache.overall_hits::total        32202257                       # number of overall hits
system.cpu.dcache.ReadReq_misses::cpu.data        78243                       # number of ReadReq misses
system.cpu.dcache.ReadReq_misses::total         78243                       # number of ReadReq misses
system.cpu.dcache.WriteReq_misses::cpu.data        72897                       # number of WriteReq misses
system.cpu.dcache.WriteReq_misses::total        72897                       # number of WriteReq misses
system.cpu.dcache.demand_misses::cpu.data       151140                       # number of demand (read+write) misses
system.cpu.dcache.demand_misses::total         151140                       # number of demand (read+write) misses
system.cpu.dcache.overall_misses::cpu.data       151140                       # number of overall misses
system.cpu.dcache.overall_misses::total        151140                       # number of overall misses
system.cpu.dcache.ReadReq_miss_latency::cpu.data   3829362500                       # number of ReadReq miss cycles
system.cpu.dcache.ReadReq_miss_latency::total   3829362500                       # number of ReadReq miss cycles
system.cpu.dcache.WriteReq_miss_latency::cpu.data   3894220500                       # number of WriteReq miss cycles
system.cpu.dcache.WriteReq_miss_latency::total   3894220500                       # number of WriteReq miss cycles
system.cpu.dcache.demand_miss_latency::cpu.data   7723583000                       # number of demand (read+write) miss cycles
system.cpu.dcache.demand_miss_latency::total   7723583000                       # number of demand (read+write) miss cycles
system.cpu.dcache.overall_miss_latency::cpu.data   7723583000                       # number of overall miss cycles
system.cpu.dcache.overall_miss_latency::total   7723583000                       # number of overall miss cycles
system.cpu.dcache.ReadReq_accesses::cpu.data     21227806                       # number of ReadReq accesses(hits+misses)
system.cpu.dcache.ReadReq_accesses::total     21227806                       # number of ReadReq accesses(hits+misses)
system.cpu.dcache.WriteReq_accesses::cpu.data     11125591                       # number of WriteReq accesses(hits+misses)
system.cpu.dcache.WriteReq_accesses::total     11125591                       # number of WriteReq accesses(hits+misses)
system.cpu.dcache.demand_accesses::cpu.data     32353397                       # number of demand (read+write) accesses
system.cpu.dcache.demand_accesses::total     32353397                       # number of demand (read+write) accesses
system.cpu.dcache.overall_accesses::cpu.data     32353397                       # number of overall (read+write) accesses
system.cpu.dcache.overall_accesses::total     32353397                       # number of overall (read+write) accesses
system.cpu.dcache.ReadReq_miss_rate::cpu.data     0.003686                       # miss rate for ReadReq accesses
system.cpu.dcache.ReadReq_miss_rate::total     0.003686                       # miss rate for ReadReq accesses
system.cpu.dcache.WriteReq_miss_rate::cpu.data     0.006552                       # miss rate for WriteReq accesses
system.cpu.dcache.WriteReq_miss_rate::total     0.006552                       # miss rate for WriteReq accesses
system.cpu.dcache.demand_miss_rate::cpu.data     0.004672                       # miss rate for demand accesses
system.cpu.dcache.demand_miss_rate::total     0.004672                       # miss rate for demand accesses
system.cpu.dcache.overall_miss_rate::cpu.data     0.004672                       # miss rate for overall accesses
system.cpu.dcache.overall_miss_rate::total     0.004672                       # miss rate for overall accesses
system.cpu.dcache.ReadReq_avg_miss_latency::cpu.data 48941.918127                       # average ReadReq miss latency
system.cpu.dcache.ReadReq_avg_miss_latency::total 48941.918127                       # average ReadReq miss latency
system.cpu.dcache.WriteReq_avg_miss_latency::cpu.data 53420.860941                       # average WriteReq miss latency
system.cpu.dcache.WriteReq_avg_miss_latency::total 53420.860941                       # average WriteReq miss latency
system.cpu.dcache.demand_avg_miss_latency::cpu.data 51102.176790                       # average overall miss latency
system.cpu.dcache.demand_avg_miss_latency::total 51102.176790                       # average overall miss latency
system.cpu.dcache.overall_avg_miss_latency::cpu.data 51102.176790                       # average overall miss latency
system.cpu.dcache.overall_avg_miss_latency::total 51102.176790                       # average overall miss latency
system.cpu.dcache.blocked_cycles::no_mshrs            0                       # number of cycles access was blocked
system.cpu.dcache.blocked_cycles::no_targets            0                       # number of cycles access was blocked
system.cpu.dcache.blocked::no_mshrs                 0                       # number of cycles access was blocked
system.cpu.dcache.blocked::no_targets               0                       # number of cycles access was blocked
system.cpu.dcache.avg_blocked_cycles::no_mshrs          nan                       # average number of cycles each access was blocked
system.cpu.dcache.avg_blocked_cycles::no_targets          nan                       # average number of cycles each access was blocked
system.cpu.dcache.fast_writes                       0                       # number of fast writes performed
system.cpu.dcache.cache_copies                      0                       # number of cache copies performed
system.cpu.dcache.writebacks::writebacks       144771                       # number of writebacks
system.cpu.dcache.writebacks::total            144771                       # number of writebacks
system.cpu.dcache.ReadReq_mshr_hits::cpu.data           14                       # number of ReadReq MSHR hits
system.cpu.dcache.ReadReq_mshr_hits::total           14                       # number of ReadReq MSHR hits
system.cpu.dcache.demand_mshr_hits::cpu.data           14                       # number of demand (read+write) MSHR hits
system.cpu.dcache.demand_mshr_hits::total           14                       # number of demand (read+write) MSHR hits
system.cpu.dcache.overall_mshr_hits::cpu.data           14                       # number of overall MSHR hits
system.cpu.dcache.overall_mshr_hits::total           14                       # number of overall MSHR hits
system.cpu.dcache.ReadReq_mshr_misses::cpu.data        78229                       # number of ReadReq MSHR misses
system.cpu.dcache.ReadReq_mshr_misses::total        78229                       # number of ReadReq MSHR misses
system.cpu.dcache.WriteReq_mshr_misses::cpu.data        72897                       # number of WriteReq MSHR misses
system.cpu.dcache.WriteReq_mshr_misses::total        72897                       # number of WriteReq MSHR misses
system.cpu.dcache.demand_mshr_misses::cpu.data       151126                       # number of demand (read+write) MSHR misses
system.cpu.dcache.demand_mshr_misses::total       151126                       # number of demand (read+write) MSHR misses
system.cpu.dcache.overall_mshr_misses::cpu.data       151126                       # number of overall MSHR misses
system.cpu.dcache.overall_mshr_misses::total       151126                       # number of overall MSHR misses
system.cpu.dcache.ReadReq_mshr_miss_latency::cpu.data   3672455000                       # number of ReadReq MSHR miss cycles
system.cpu.dcache.ReadReq_mshr_miss_latency::total   3672455000                       # number of ReadReq MSHR miss cycles
system.cpu.dcache.WriteReq_mshr_miss_latency::cpu.data   3748426500                       # number of WriteReq MSHR miss cycles
system.cpu.dcache.WriteReq_mshr_miss_latency::total   3748426500                       # number of WriteReq MSHR miss cycles
system.cpu.dcache.demand_mshr_miss_latency::cpu.data   7420881500                       # number of demand (read+write) MSHR miss cycles
system.cpu.dcache.demand_mshr_miss_latency::total   7420881500                       # number of demand (read+write) MSHR miss cycles
system.cpu.dcache.overall_mshr_miss_latency::cpu.data   7420881500                       # number of overall MSHR miss cycles
system.cpu.dcache.overall_mshr_miss_latency::total   7420881500                       # number of overall MSHR miss cycles
system.cpu.dcache.ReadReq_mshr_miss_rate::cpu.data     0.003685                       # mshr miss rate for ReadReq accesses
system.cpu.dcache.ReadReq_mshr_miss_rate::total     0.003685                       # mshr miss rate for ReadReq accesses
system.cpu.dcache.WriteReq_mshr_miss_rate::cpu.data     0.006552                       # mshr miss rate for WriteReq accesses
system.cpu.dcache.WriteReq_mshr_miss_rate::total     0.006552                       # mshr miss rate for WriteReq accesses
system.cpu.dcache.demand_mshr_miss_rate::cpu.data     0.004671                       # mshr miss rate for demand accesses
system.cpu.dcache.demand_mshr_miss_rate::total     0.004671                       # mshr miss rate for demand accesses
system.cpu.dcache.overall_mshr_miss_rate::cpu.data     0.004671                       # mshr miss rate for overall accesses
system.cpu.dcache.overall_mshr_miss_rate::total     0.004671                       # mshr miss rate for overall accesses
system.cpu.dcache.ReadReq_avg_mshr_miss_latency::cpu.data 46944.930908                       # average ReadReq mshr miss latency
system.cpu.dcache.ReadReq_avg_mshr_miss_latency::total 46944.930908                       # average ReadReq mshr miss latency
system.cpu.dcache.WriteReq_avg_mshr_miss_latency::cpu.data 51420.860941                       # average WriteReq mshr miss latency
system.cpu.dcache.WriteReq_avg_mshr_miss_latency::total 51420.860941                       # average WriteReq mshr miss latency
system.cpu.dcache.demand_avg_mshr_miss_latency::cpu.data 49103.936450                       # average overall mshr miss latency
system.cpu.dcache.demand_avg_mshr_miss_latency::total 49103.936450                       # average overall mshr miss latency
system.cpu.dcache.overall_avg_mshr_miss_latency::cpu.data 49103.936450                       # average overall mshr miss latency
system.cpu.dcache.overall_avg_mshr_miss_latency::total 49103.936450                       # average overall mshr miss latency
system.cpu.dcache.no_allocate_misses                0                       # Number of misses that were no-allocate

---------- End Simulation Statistics   ----------
