
---------- Begin Simulation Statistics ----------
sim_seconds                                  0.272507                       # Number of seconds simulated
sim_ticks                                272506594000                       # Number of ticks simulated
final_tick                               16716908507000                       # Number of ticks from beginning of simulation (restored from checkpoints and never reset)
sim_freq                                 1000000000000                       # Frequency of simulated ticks
host_inst_rate                                  91481                       # Simulator instruction rate (inst/s)
host_op_rate                                   120280                       # Simulator op (including micro ops) rate (op/s)
host_tick_rate                              249292227                       # Simulator tick rate (ticks/s)
host_mem_usage                                2863276                       # Number of bytes of host memory used
host_seconds                                  1093.12                       # Real time elapsed on the host
sim_insts                                   100000001                       # Number of instructions simulated
sim_ops                                     131480905                       # Number of ops (including micro ops) simulated
system.physmem.bytes_read::cpu.inst               640                       # Number of bytes read from this memory
system.physmem.bytes_read::cpu.data         170530496                       # Number of bytes read from this memory
system.physmem.bytes_read::total            170531136                       # Number of bytes read from this memory
system.physmem.bytes_inst_read::cpu.inst          640                       # Number of instructions bytes read from this memory
system.physmem.bytes_inst_read::total             640                       # Number of instructions bytes read from this memory
system.physmem.bytes_written::writebacks     80780288                       # Number of bytes written to this memory
system.physmem.bytes_written::total          80780288                       # Number of bytes written to this memory
system.physmem.num_reads::cpu.inst                 10                       # Number of read requests responded to by this memory
system.physmem.num_reads::cpu.data            2664539                       # Number of read requests responded to by this memory
system.physmem.num_reads::total               2664549                       # Number of read requests responded to by this memory
system.physmem.num_writes::writebacks         1262192                       # Number of write requests responded to by this memory
system.physmem.num_writes::total              1262192                       # Number of write requests responded to by this memory
system.physmem.bw_read::cpu.inst                 2349                       # Total read bandwidth from this memory (bytes/s)
system.physmem.bw_read::cpu.data            625784842                       # Total read bandwidth from this memory (bytes/s)
system.physmem.bw_read::total               625787191                       # Total read bandwidth from this memory (bytes/s)
system.physmem.bw_inst_read::cpu.inst            2349                       # Instruction read bandwidth from this memory (bytes/s)
system.physmem.bw_inst_read::total               2349                       # Instruction read bandwidth from this memory (bytes/s)
system.physmem.bw_write::writebacks         296434251                       # Write bandwidth from this memory (bytes/s)
system.physmem.bw_write::total              296434251                       # Write bandwidth from this memory (bytes/s)
system.physmem.bw_total::writebacks         296434251                       # Total bandwidth to/from this memory (bytes/s)
system.physmem.bw_total::cpu.inst                2349                       # Total bandwidth to/from this memory (bytes/s)
system.physmem.bw_total::cpu.data           625784842                       # Total bandwidth to/from this memory (bytes/s)
system.physmem.bw_total::total              922221442                       # Total bandwidth to/from this memory (bytes/s)
system.l2.replacements                        2648428                       # number of replacements
system.l2.tagsinuse                      16284.887068                       # Cycle average of tags in use
system.l2.total_refs                          1730420                       # Total number of references to valid blocks.
system.l2.sampled_refs                        2664811                       # Sample count of references to valid blocks.
system.l2.avg_refs                           0.649359                       # Average number of references to valid blocks.
system.l2.warmup_cycle                   16450317314000                       # Cycle when the warmup percentage was hit.
system.l2.occ_blocks::writebacks             7.659883                       # Average occupied blocks per requestor
system.l2.occ_blocks::cpu.inst               0.100032                       # Average occupied blocks per requestor
system.l2.occ_blocks::cpu.data           16277.127154                       # Average occupied blocks per requestor
system.l2.occ_percent::writebacks            0.000468                       # Average percentage of cache occupancy
system.l2.occ_percent::cpu.inst              0.000006                       # Average percentage of cache occupancy
system.l2.occ_percent::cpu.data              0.993477                       # Average percentage of cache occupancy
system.l2.occ_percent::total                 0.993951                       # Average percentage of cache occupancy
system.l2.ReadReq_hits::cpu.data               246918                       # number of ReadReq hits
system.l2.ReadReq_hits::total                  246918                       # number of ReadReq hits
system.l2.Writeback_hits::writebacks          1483796                       # number of Writeback hits
system.l2.Writeback_hits::total               1483796                       # number of Writeback hits
system.l2.ReadExReq_hits::cpu.data               4124                       # number of ReadExReq hits
system.l2.ReadExReq_hits::total                  4124                       # number of ReadExReq hits
system.l2.demand_hits::cpu.data                251042                       # number of demand (read+write) hits
system.l2.demand_hits::total                   251042                       # number of demand (read+write) hits
system.l2.overall_hits::cpu.data               251042                       # number of overall hits
system.l2.overall_hits::total                  251042                       # number of overall hits
system.l2.ReadReq_misses::cpu.inst                 10                       # number of ReadReq misses
system.l2.ReadReq_misses::cpu.data            2664509                       # number of ReadReq misses
system.l2.ReadReq_misses::total               2664519                       # number of ReadReq misses
system.l2.ReadExReq_misses::cpu.data               30                       # number of ReadExReq misses
system.l2.ReadExReq_misses::total                  30                       # number of ReadExReq misses
system.l2.demand_misses::cpu.inst                  10                       # number of demand (read+write) misses
system.l2.demand_misses::cpu.data             2664539                       # number of demand (read+write) misses
system.l2.demand_misses::total                2664549                       # number of demand (read+write) misses
system.l2.overall_misses::cpu.inst                 10                       # number of overall misses
system.l2.overall_misses::cpu.data            2664539                       # number of overall misses
system.l2.overall_misses::total               2664549                       # number of overall misses
system.l2.ReadReq_miss_latency::cpu.inst       551000                       # number of ReadReq miss cycles
system.l2.ReadReq_miss_latency::cpu.data 145013773000                       # number of ReadReq miss cycles
system.l2.ReadReq_miss_latency::total    145014324000                       # number of ReadReq miss cycles
system.l2.ReadExReq_miss_latency::cpu.data      1573500                       # number of ReadExReq miss cycles
system.l2.ReadExReq_miss_latency::total       1573500                       # number of ReadExReq miss cycles
system.l2.demand_miss_latency::cpu.inst        551000                       # number of demand (read+write) miss cycles
system.l2.demand_miss_latency::cpu.data  145015346500                       # number of demand (read+write) miss cycles
system.l2.demand_miss_latency::total     145015897500                       # number of demand (read+write) miss cycles
system.l2.overall_miss_latency::cpu.inst       551000                       # number of overall miss cycles
system.l2.overall_miss_latency::cpu.data 145015346500                       # number of overall miss cycles
system.l2.overall_miss_latency::total    145015897500                       # number of overall miss cycles
system.l2.ReadReq_accesses::cpu.inst               10                       # number of ReadReq accesses(hits+misses)
system.l2.ReadReq_accesses::cpu.data          2911427                       # number of ReadReq accesses(hits+misses)
system.l2.ReadReq_accesses::total             2911437                       # number of ReadReq accesses(hits+misses)
system.l2.Writeback_accesses::writebacks      1483796                       # number of Writeback accesses(hits+misses)
system.l2.Writeback_accesses::total           1483796                       # number of Writeback accesses(hits+misses)
system.l2.ReadExReq_accesses::cpu.data           4154                       # number of ReadExReq accesses(hits+misses)
system.l2.ReadExReq_accesses::total              4154                       # number of ReadExReq accesses(hits+misses)
system.l2.demand_accesses::cpu.inst                10                       # number of demand (read+write) accesses
system.l2.demand_accesses::cpu.data           2915581                       # number of demand (read+write) accesses
system.l2.demand_accesses::total              2915591                       # number of demand (read+write) accesses
system.l2.overall_accesses::cpu.inst               10                       # number of overall (read+write) accesses
system.l2.overall_accesses::cpu.data          2915581                       # number of overall (read+write) accesses
system.l2.overall_accesses::total             2915591                       # number of overall (read+write) accesses
system.l2.ReadReq_miss_rate::cpu.inst               1                       # miss rate for ReadReq accesses
system.l2.ReadReq_miss_rate::cpu.data        0.915190                       # miss rate for ReadReq accesses
system.l2.ReadReq_miss_rate::total           0.915190                       # miss rate for ReadReq accesses
system.l2.ReadExReq_miss_rate::cpu.data      0.007222                       # miss rate for ReadExReq accesses
system.l2.ReadExReq_miss_rate::total         0.007222                       # miss rate for ReadExReq accesses
system.l2.demand_miss_rate::cpu.inst                1                       # miss rate for demand accesses
system.l2.demand_miss_rate::cpu.data         0.913896                       # miss rate for demand accesses
system.l2.demand_miss_rate::total            0.913897                       # miss rate for demand accesses
system.l2.overall_miss_rate::cpu.inst               1                       # miss rate for overall accesses
system.l2.overall_miss_rate::cpu.data        0.913896                       # miss rate for overall accesses
system.l2.overall_miss_rate::total           0.913897                       # miss rate for overall accesses
system.l2.ReadReq_avg_miss_latency::cpu.inst        55100                       # average ReadReq miss latency
system.l2.ReadReq_avg_miss_latency::cpu.data 54424.200857                       # average ReadReq miss latency
system.l2.ReadReq_avg_miss_latency::total 54424.203393                       # average ReadReq miss latency
system.l2.ReadExReq_avg_miss_latency::cpu.data        52450                       # average ReadExReq miss latency
system.l2.ReadExReq_avg_miss_latency::total        52450                       # average ReadExReq miss latency
system.l2.demand_avg_miss_latency::cpu.inst        55100                       # average overall miss latency
system.l2.demand_avg_miss_latency::cpu.data 54424.178629                       # average overall miss latency
system.l2.demand_avg_miss_latency::total 54424.181165                       # average overall miss latency
system.l2.overall_avg_miss_latency::cpu.inst        55100                       # average overall miss latency
system.l2.overall_avg_miss_latency::cpu.data 54424.178629                       # average overall miss latency
system.l2.overall_avg_miss_latency::total 54424.181165                       # average overall miss latency
system.l2.blocked_cycles::no_mshrs                  0                       # number of cycles access was blocked
system.l2.blocked_cycles::no_targets                0                       # number of cycles access was blocked
system.l2.blocked::no_mshrs                         0                       # number of cycles access was blocked
system.l2.blocked::no_targets                       0                       # number of cycles access was blocked
system.l2.avg_blocked_cycles::no_mshrs            nan                       # average number of cycles each access was blocked
system.l2.avg_blocked_cycles::no_targets          nan                       # average number of cycles each access was blocked
system.l2.fast_writes                               0                       # number of fast writes performed
system.l2.cache_copies                              0                       # number of cache copies performed
system.l2.writebacks::writebacks              1262192                       # number of writebacks
system.l2.writebacks::total                   1262192                       # number of writebacks
system.l2.ReadReq_mshr_misses::cpu.inst            10                       # number of ReadReq MSHR misses
system.l2.ReadReq_mshr_misses::cpu.data       2664509                       # number of ReadReq MSHR misses
system.l2.ReadReq_mshr_misses::total          2664519                       # number of ReadReq MSHR misses
system.l2.ReadExReq_mshr_misses::cpu.data           30                       # number of ReadExReq MSHR misses
system.l2.ReadExReq_mshr_misses::total             30                       # number of ReadExReq MSHR misses
system.l2.demand_mshr_misses::cpu.inst             10                       # number of demand (read+write) MSHR misses
system.l2.demand_mshr_misses::cpu.data        2664539                       # number of demand (read+write) MSHR misses
system.l2.demand_mshr_misses::total           2664549                       # number of demand (read+write) MSHR misses
system.l2.overall_mshr_misses::cpu.inst            10                       # number of overall MSHR misses
system.l2.overall_mshr_misses::cpu.data       2664539                       # number of overall MSHR misses
system.l2.overall_mshr_misses::total          2664549                       # number of overall MSHR misses
system.l2.ReadReq_mshr_miss_latency::cpu.inst       429000                       # number of ReadReq MSHR miss cycles
system.l2.ReadReq_mshr_miss_latency::cpu.data 112230546500                       # number of ReadReq MSHR miss cycles
system.l2.ReadReq_mshr_miss_latency::total 112230975500                       # number of ReadReq MSHR miss cycles
system.l2.ReadExReq_mshr_miss_latency::cpu.data      1200000                       # number of ReadExReq MSHR miss cycles
system.l2.ReadExReq_mshr_miss_latency::total      1200000                       # number of ReadExReq MSHR miss cycles
system.l2.demand_mshr_miss_latency::cpu.inst       429000                       # number of demand (read+write) MSHR miss cycles
system.l2.demand_mshr_miss_latency::cpu.data 112231746500                       # number of demand (read+write) MSHR miss cycles
system.l2.demand_mshr_miss_latency::total 112232175500                       # number of demand (read+write) MSHR miss cycles
system.l2.overall_mshr_miss_latency::cpu.inst       429000                       # number of overall MSHR miss cycles
system.l2.overall_mshr_miss_latency::cpu.data 112231746500                       # number of overall MSHR miss cycles
system.l2.overall_mshr_miss_latency::total 112232175500                       # number of overall MSHR miss cycles
system.l2.ReadReq_mshr_miss_rate::cpu.inst            1                       # mshr miss rate for ReadReq accesses
system.l2.ReadReq_mshr_miss_rate::cpu.data     0.915190                       # mshr miss rate for ReadReq accesses
system.l2.ReadReq_mshr_miss_rate::total      0.915190                       # mshr miss rate for ReadReq accesses
system.l2.ReadExReq_mshr_miss_rate::cpu.data     0.007222                       # mshr miss rate for ReadExReq accesses
system.l2.ReadExReq_mshr_miss_rate::total     0.007222                       # mshr miss rate for ReadExReq accesses
system.l2.demand_mshr_miss_rate::cpu.inst            1                       # mshr miss rate for demand accesses
system.l2.demand_mshr_miss_rate::cpu.data     0.913896                       # mshr miss rate for demand accesses
system.l2.demand_mshr_miss_rate::total       0.913897                       # mshr miss rate for demand accesses
system.l2.overall_mshr_miss_rate::cpu.inst            1                       # mshr miss rate for overall accesses
system.l2.overall_mshr_miss_rate::cpu.data     0.913896                       # mshr miss rate for overall accesses
system.l2.overall_mshr_miss_rate::total      0.913897                       # mshr miss rate for overall accesses
system.l2.ReadReq_avg_mshr_miss_latency::cpu.inst        42900                       # average ReadReq mshr miss latency
system.l2.ReadReq_avg_mshr_miss_latency::cpu.data 42120.535716                       # average ReadReq mshr miss latency
system.l2.ReadReq_avg_mshr_miss_latency::total 42120.538641                       # average ReadReq mshr miss latency
system.l2.ReadExReq_avg_mshr_miss_latency::cpu.data        40000                       # average ReadExReq mshr miss latency
system.l2.ReadExReq_avg_mshr_miss_latency::total        40000                       # average ReadExReq mshr miss latency
system.l2.demand_avg_mshr_miss_latency::cpu.inst        42900                       # average overall mshr miss latency
system.l2.demand_avg_mshr_miss_latency::cpu.data 42120.511841                       # average overall mshr miss latency
system.l2.demand_avg_mshr_miss_latency::total 42120.514766                       # average overall mshr miss latency
system.l2.overall_avg_mshr_miss_latency::cpu.inst        42900                       # average overall mshr miss latency
system.l2.overall_avg_mshr_miss_latency::cpu.data 42120.511841                       # average overall mshr miss latency
system.l2.overall_avg_mshr_miss_latency::total 42120.514766                       # average overall mshr miss latency
system.l2.no_allocate_misses                        0                       # Number of misses that were no-allocate
system.cpu.branchPred.lookups                 8609409                       # Number of BP lookups
system.cpu.branchPred.condPredicted           8609409                       # Number of conditional branches predicted
system.cpu.branchPred.condIncorrect            200048                       # Number of conditional branches incorrect
system.cpu.branchPred.BTBLookups              2963021                       # Number of BTB lookups
system.cpu.branchPred.BTBHits                 2961930                       # Number of BTB hits
system.cpu.branchPred.BTBCorrect                    0                       # Number of correct BTB predictions (this stat may not work properly.
system.cpu.branchPred.BTBHitPct             99.963179                       # BTB Hit Percentage
system.cpu.branchPred.usedRAS                       0                       # Number of times the RAS was used to get a target.
system.cpu.branchPred.RASInCorrect                  0                       # Number of incorrect RAS predictions.
system.cpu.workload.num_syscalls                    0                       # Number of system calls
system.cpu.numCycles                        545013188                       # number of cpu cycles simulated
system.cpu.numWorkItemsStarted                      0                       # number of work items this cpu started
system.cpu.numWorkItemsCompleted                    0                       # number of work items this cpu completed
system.cpu.fetch.icacheStallCycles           10056910                       # Number of cycles fetch is stalled on an Icache miss
system.cpu.fetch.Insts                      100532349                       # Number of instructions fetch has processed
system.cpu.fetch.Branches                     8609409                       # Number of branches that fetch encountered
system.cpu.fetch.predictedBranches            2961930                       # Number of branches that fetch has predicted taken
system.cpu.fetch.Cycles                      69671999                       # Number of cycles fetch has run and was not squashing or blocked
system.cpu.fetch.SquashCycles                  400096                       # Number of cycles fetch has spent squashing
system.cpu.fetch.BlockedCycles              271934706                       # Number of cycles fetch has spent blocked
system.cpu.fetch.CacheLines                  10005330                       # Number of cache lines fetched
system.cpu.fetch.IcacheSquashes                    22                       # Number of outstanding Icache misses that were squashed
system.cpu.fetch.rateDist::samples          351863663                       # Number of instructions fetched each cycle (Total)
system.cpu.fetch.rateDist::mean              0.375590                       # Number of instructions fetched each cycle (Total)
system.cpu.fetch.rateDist::stdev             0.768039                       # Number of instructions fetched each cycle (Total)
system.cpu.fetch.rateDist::underflows               0      0.00%      0.00% # Number of instructions fetched each cycle (Total)
system.cpu.fetch.rateDist::0                282226738     80.21%     80.21% # Number of instructions fetched each cycle (Total)
system.cpu.fetch.rateDist::1                  7117525      2.02%     82.23% # Number of instructions fetched each cycle (Total)
system.cpu.fetch.rateDist::2                 62519400     17.77%    100.00% # Number of instructions fetched each cycle (Total)
system.cpu.fetch.rateDist::overflows                0      0.00%    100.00% # Number of instructions fetched each cycle (Total)
system.cpu.fetch.rateDist::min_value                0                       # Number of instructions fetched each cycle (Total)
system.cpu.fetch.rateDist::max_value                2                       # Number of instructions fetched each cycle (Total)
system.cpu.fetch.rateDist::total            351863663                       # Number of instructions fetched each cycle (Total)
system.cpu.fetch.branchRate                  0.015797                       # Number of branch fetches per cycle
system.cpu.fetch.rate                        0.184459                       # Number of inst fetches per cycle
system.cpu.decode.IdleCycles                 50658324                       # Number of cycles decode is idle
system.cpu.decode.BlockedCycles             231439375                       # Number of cycles decode is blocked
system.cpu.decode.RunCycles                  50963417                       # Number of cycles decode is running
system.cpu.decode.UnblockCycles              18602496                       # Number of cycles decode is unblocking
system.cpu.decode.SquashCycles                 200048                       # Number of cycles decode is squashing
system.cpu.decode.DecodedInsts              132014329                       # Number of instructions handled by decode
system.cpu.rename.SquashCycles                 200048                       # Number of cycles rename is squashing
system.cpu.rename.IdleCycles                 71143607                       # Number of cycles rename is idle
system.cpu.rename.BlockCycles               195774842                       # Number of cycles rename is blocking
system.cpu.rename.serializeStallCycles              0                       # count of cycles rename stalled for serializing inst
system.cpu.rename.RunCycles                  27191939                       # Number of cycles rename is running
system.cpu.rename.UnblockCycles              57553226                       # Number of cycles rename is unblocking
system.cpu.rename.RenamedInsts              131823757                       # Number of instructions processed by rename
system.cpu.rename.IQFullEvents               30604331                       # Number of times rename has blocked due to IQ full
system.cpu.rename.RenamedOperands           158802326                       # Number of destination operands rename has renamed
system.cpu.rename.RenameLookups             402544849                       # Number of register rename lookups that rename has made
system.cpu.rename.int_rename_lookups        402544849                       # Number of integer rename lookups
system.cpu.rename.CommittedMaps             158232972                       # Number of HB maps that are committed
system.cpu.rename.UndoneMaps                   569354                       # Number of HB maps that are undone due to squashing
system.cpu.rename.serializingInsts                  0                       # count of serializing insts renamed
system.cpu.rename.tempSerializingInsts              0                       # count of temporary serializing insts renamed
system.cpu.rename.skidInsts                  85491539                       # count of insts added to the skid buffer
system.cpu.memDep0.insertedLoads             24229274                       # Number of loads inserted to the mem dependence unit.
system.cpu.memDep0.insertedStores            24355307                       # Number of stores inserted to the mem dependence unit.
system.cpu.memDep0.conflictingLoads                 0                       # Number of conflicting loads.
system.cpu.memDep0.conflictingStores                0                       # Number of conflicting stores.
system.cpu.iq.iqInstsAdded                  131660954                       # Number of instructions added to the IQ (excludes non-spec)
system.cpu.iq.iqInstsIssued                 131639281                       # Number of instructions issued
system.cpu.iq.iqSquashedInstsExamined          154295                       # Number of squashed instructions iterated over during squash; mainly for profiling
system.cpu.iq.iqSquashedOperandsExamined       454063                       # Number of squashed operands that are examined and possibly removed from graph
system.cpu.iq.issued_per_cycle::samples     351863663                       # Number of insts issued each cycle
system.cpu.iq.issued_per_cycle::mean         0.374120                       # Number of insts issued each cycle
system.cpu.iq.issued_per_cycle::stdev        0.560366                       # Number of insts issued each cycle
system.cpu.iq.issued_per_cycle::underflows            0      0.00%      0.00% # Number of insts issued each cycle
system.cpu.iq.issued_per_cycle::0           234273506     66.58%     66.58% # Number of insts issued each cycle
system.cpu.iq.issued_per_cycle::1           103541033     29.43%     96.01% # Number of insts issued each cycle
system.cpu.iq.issued_per_cycle::2            14049124      3.99%    100.00% # Number of insts issued each cycle
system.cpu.iq.issued_per_cycle::overflows            0      0.00%    100.00% # Number of insts issued each cycle
system.cpu.iq.issued_per_cycle::min_value            0                       # Number of insts issued each cycle
system.cpu.iq.issued_per_cycle::max_value            2                       # Number of insts issued each cycle
system.cpu.iq.issued_per_cycle::total       351863663                       # Number of insts issued each cycle
system.cpu.iq.fu_full::No_OpClass                   0      0.00%      0.00% # attempts to use FU when none available
system.cpu.iq.fu_full::IntAlu                 7388227    100.00%    100.00% # attempts to use FU when none available
system.cpu.iq.fu_full::IntMult                      0      0.00%    100.00% # attempts to use FU when none available
system.cpu.iq.fu_full::IntDiv                       0      0.00%    100.00% # attempts to use FU when none available
system.cpu.iq.fu_full::FloatAdd                     0      0.00%    100.00% # attempts to use FU when none available
system.cpu.iq.fu_full::FloatCmp                     0      0.00%    100.00% # attempts to use FU when none available
system.cpu.iq.fu_full::FloatCvt                     0      0.00%    100.00% # attempts to use FU when none available
system.cpu.iq.fu_full::FloatMult                    0      0.00%    100.00% # attempts to use FU when none available
system.cpu.iq.fu_full::FloatDiv                     0      0.00%    100.00% # attempts to use FU when none available
system.cpu.iq.fu_full::FloatSqrt                    0      0.00%    100.00% # attempts to use FU when none available
system.cpu.iq.fu_full::SimdAdd                      0      0.00%    100.00% # attempts to use FU when none available
system.cpu.iq.fu_full::SimdAddAcc                   0      0.00%    100.00% # attempts to use FU when none available
system.cpu.iq.fu_full::SimdAlu                      0      0.00%    100.00% # attempts to use FU when none available
system.cpu.iq.fu_full::SimdCmp                      0      0.00%    100.00% # attempts to use FU when none available
system.cpu.iq.fu_full::SimdCvt                      0      0.00%    100.00% # attempts to use FU when none available
system.cpu.iq.fu_full::SimdMisc                     0      0.00%    100.00% # attempts to use FU when none available
system.cpu.iq.fu_full::SimdMult                     0      0.00%    100.00% # attempts to use FU when none available
system.cpu.iq.fu_full::SimdMultAcc                  0      0.00%    100.00% # attempts to use FU when none available
system.cpu.iq.fu_full::SimdShift                    0      0.00%    100.00% # attempts to use FU when none available
system.cpu.iq.fu_full::SimdShiftAcc                 0      0.00%    100.00% # attempts to use FU when none available
system.cpu.iq.fu_full::SimdSqrt                     0      0.00%    100.00% # attempts to use FU when none available
system.cpu.iq.fu_full::SimdFloatAdd                 0      0.00%    100.00% # attempts to use FU when none available
system.cpu.iq.fu_full::SimdFloatAlu                 0      0.00%    100.00% # attempts to use FU when none available
system.cpu.iq.fu_full::SimdFloatCmp                 0      0.00%    100.00% # attempts to use FU when none available
system.cpu.iq.fu_full::SimdFloatCvt                 0      0.00%    100.00% # attempts to use FU when none available
system.cpu.iq.fu_full::SimdFloatDiv                 0      0.00%    100.00% # attempts to use FU when none available
system.cpu.iq.fu_full::SimdFloatMisc                0      0.00%    100.00% # attempts to use FU when none available
system.cpu.iq.fu_full::SimdFloatMult                0      0.00%    100.00% # attempts to use FU when none available
system.cpu.iq.fu_full::SimdFloatMultAcc             0      0.00%    100.00% # attempts to use FU when none available
system.cpu.iq.fu_full::SimdFloatSqrt                0      0.00%    100.00% # attempts to use FU when none available
system.cpu.iq.fu_full::MemRead                      0      0.00%    100.00% # attempts to use FU when none available
system.cpu.iq.fu_full::MemWrite                     0      0.00%    100.00% # attempts to use FU when none available
system.cpu.iq.fu_full::IprAccess                    0      0.00%    100.00% # attempts to use FU when none available
system.cpu.iq.fu_full::InstPrefetch                 0      0.00%    100.00% # attempts to use FU when none available
system.cpu.iq.FU_type_0::No_OpClass                 4      0.00%      0.00% # Type of FU issued
system.cpu.iq.FU_type_0::IntAlu              83054696     63.09%     63.09% # Type of FU issued
system.cpu.iq.FU_type_0::IntMult                    0      0.00%     63.09% # Type of FU issued
system.cpu.iq.FU_type_0::IntDiv                     0      0.00%     63.09% # Type of FU issued
system.cpu.iq.FU_type_0::FloatAdd                   0      0.00%     63.09% # Type of FU issued
system.cpu.iq.FU_type_0::FloatCmp                   0      0.00%     63.09% # Type of FU issued
system.cpu.iq.FU_type_0::FloatCvt                   0      0.00%     63.09% # Type of FU issued
system.cpu.iq.FU_type_0::FloatMult                  0      0.00%     63.09% # Type of FU issued
system.cpu.iq.FU_type_0::FloatDiv                   0      0.00%     63.09% # Type of FU issued
system.cpu.iq.FU_type_0::FloatSqrt                  0      0.00%     63.09% # Type of FU issued
system.cpu.iq.FU_type_0::SimdAdd                    0      0.00%     63.09% # Type of FU issued
system.cpu.iq.FU_type_0::SimdAddAcc                 0      0.00%     63.09% # Type of FU issued
system.cpu.iq.FU_type_0::SimdAlu                    0      0.00%     63.09% # Type of FU issued
system.cpu.iq.FU_type_0::SimdCmp                    0      0.00%     63.09% # Type of FU issued
system.cpu.iq.FU_type_0::SimdCvt                    0      0.00%     63.09% # Type of FU issued
system.cpu.iq.FU_type_0::SimdMisc                   0      0.00%     63.09% # Type of FU issued
system.cpu.iq.FU_type_0::SimdMult                   0      0.00%     63.09% # Type of FU issued
system.cpu.iq.FU_type_0::SimdMultAcc                0      0.00%     63.09% # Type of FU issued
system.cpu.iq.FU_type_0::SimdShift                  0      0.00%     63.09% # Type of FU issued
system.cpu.iq.FU_type_0::SimdShiftAcc               0      0.00%     63.09% # Type of FU issued
system.cpu.iq.FU_type_0::SimdSqrt                   0      0.00%     63.09% # Type of FU issued
system.cpu.iq.FU_type_0::SimdFloatAdd               0      0.00%     63.09% # Type of FU issued
system.cpu.iq.FU_type_0::SimdFloatAlu               0      0.00%     63.09% # Type of FU issued
system.cpu.iq.FU_type_0::SimdFloatCmp               0      0.00%     63.09% # Type of FU issued
system.cpu.iq.FU_type_0::SimdFloatCvt               0      0.00%     63.09% # Type of FU issued
system.cpu.iq.FU_type_0::SimdFloatDiv               0      0.00%     63.09% # Type of FU issued
system.cpu.iq.FU_type_0::SimdFloatMisc              0      0.00%     63.09% # Type of FU issued
system.cpu.iq.FU_type_0::SimdFloatMult              0      0.00%     63.09% # Type of FU issued
system.cpu.iq.FU_type_0::SimdFloatMultAcc            0      0.00%     63.09% # Type of FU issued
system.cpu.iq.FU_type_0::SimdFloatSqrt              0      0.00%     63.09% # Type of FU issued
system.cpu.iq.FU_type_0::MemRead             24229274     18.41%     81.50% # Type of FU issued
system.cpu.iq.FU_type_0::MemWrite            24355307     18.50%    100.00% # Type of FU issued
system.cpu.iq.FU_type_0::IprAccess                  0      0.00%    100.00% # Type of FU issued
system.cpu.iq.FU_type_0::InstPrefetch               0      0.00%    100.00% # Type of FU issued
system.cpu.iq.FU_type_0::total              131639281                       # Type of FU issued
system.cpu.iq.rate                           0.241534                       # Inst issue rate
system.cpu.iq.fu_busy_cnt                     7388227                       # FU busy when requested
system.cpu.iq.fu_busy_rate                   0.056125                       # FU busy rate (busy events/executed inst)
system.cpu.iq.int_inst_queue_reads          622530452                       # Number of integer instruction queue reads
system.cpu.iq.int_inst_queue_writes         131815249                       # Number of integer instruction queue writes
system.cpu.iq.int_inst_queue_wakeup_accesses    131481767                       # Number of integer instruction queue wakeup accesses
system.cpu.iq.fp_inst_queue_reads                   0                       # Number of floating instruction queue reads
system.cpu.iq.fp_inst_queue_writes                  0                       # Number of floating instruction queue writes
system.cpu.iq.fp_inst_queue_wakeup_accesses            0                       # Number of floating instruction queue wakeup accesses
system.cpu.iq.int_alu_accesses              139027504                       # Number of integer alu accesses
system.cpu.iq.fp_alu_accesses                       0                       # Number of floating point alu accesses
system.cpu.iew.lsq.thread0.forwLoads                0                       # Number of loads that had data forwarded from stores
system.cpu.iew.lsq.thread0.invAddrLoads             0                       # Number of loads ignored due to an invalid address
system.cpu.iew.lsq.thread0.squashedLoads       131488                       # Number of loads squashed
system.cpu.iew.lsq.thread0.ignoredResponses            0                       # Number of memory responses ignored because the instruction is squashed
system.cpu.iew.lsq.thread0.memOrderViolation            0                       # Number of memory ordering violations
system.cpu.iew.lsq.thread0.squashedStores           10                       # Number of stores squashed
system.cpu.iew.lsq.thread0.invAddrSwpfs             0                       # Number of software prefetches ignored due to an invalid address
system.cpu.iew.lsq.thread0.blockedLoads             0                       # Number of blocked loads due to partial load-store forwarding
system.cpu.iew.lsq.thread0.rescheduledLoads            0                       # Number of loads that were rescheduled
system.cpu.iew.lsq.thread0.cacheBlocked             0                       # Number of times an access to memory failed due to the cache being blocked
system.cpu.iew.iewIdleCycles                        0                       # Number of cycles IEW is idle
system.cpu.iew.iewSquashCycles                 200048                       # Number of cycles IEW is squashing
system.cpu.iew.iewBlockCycles                56384095                       # Number of cycles IEW is blocking
system.cpu.iew.iewUnblockCycles               9039486                       # Number of cycles IEW is unblocking
system.cpu.iew.iewDispatchedInsts           131660954                       # Number of instructions dispatched to IQ
system.cpu.iew.iewDispSquashedInsts             11872                       # Number of squashed instructions skipped by dispatch
system.cpu.iew.iewDispLoadInsts              24229274                       # Number of dispatched load instructions
system.cpu.iew.iewDispStoreInsts             24355307                       # Number of dispatched store instructions
system.cpu.iew.iewDispNonSpecInsts                  0                       # Number of dispatched non-speculative instructions
system.cpu.iew.iewIQFullEvents                6938344                       # Number of times the IQ has become full, causing a stall
system.cpu.iew.iewLSQFullEvents                     0                       # Number of times the LSQ has become full, causing a stall
system.cpu.iew.memOrderViolationEvents              0                       # Number of memory order violations
system.cpu.iew.predictedTakenIncorrect          50088                       # Number of branches that were predicted taken incorrectly
system.cpu.iew.predictedNotTakenIncorrect       149960                       # Number of branches that were predicted not taken incorrectly
system.cpu.iew.branchMispredicts               200048                       # Number of branch mispredicts detected at execute
system.cpu.iew.iewExecutedInsts             131543503                       # Number of executed instructions
system.cpu.iew.iewExecLoadInsts              24159522                       # Number of load instructions executed
system.cpu.iew.iewExecSquashedInsts             95778                       # Number of squashed instructions skipped in execute
system.cpu.iew.exec_swp                             0                       # number of swp insts executed
system.cpu.iew.exec_nop                             0                       # number of nop insts executed
system.cpu.iew.exec_refs                     48514829                       # number of memory reference insts executed
system.cpu.iew.exec_branches                  8581311                       # Number of branches executed
system.cpu.iew.exec_stores                   24355307                       # Number of stores executed
system.cpu.iew.exec_rate                     0.241358                       # Inst execution rate
system.cpu.iew.wb_sent                      131481789                       # cumulative count of insts sent to commit
system.cpu.iew.wb_count                     131481767                       # cumulative count of insts written-back
system.cpu.iew.wb_producers                  38877633                       # num instructions producing a value
system.cpu.iew.wb_consumers                  42199070                       # num instructions consuming a value
system.cpu.iew.wb_penalized                         0                       # number of instrctions required to write to 'other' IQ
system.cpu.iew.wb_rate                       0.241245                       # insts written-back per cycle
system.cpu.iew.wb_fanout                     0.921291                       # average fanout of values written-back
system.cpu.iew.wb_penalized_rate                    0                       # fraction of instructions written-back that wrote to 'other' IQ
system.cpu.commit.commitSquashedInsts          180049                       # The number of squashed insts skipped by commit
system.cpu.commit.branchMispredicts            200048                       # The number of times a branch was mispredicted
system.cpu.commit.committed_per_cycle::samples    351663615                       # Number of insts commited each cycle
system.cpu.commit.committed_per_cycle::mean     0.373883                       # Number of insts commited each cycle
system.cpu.commit.committed_per_cycle::stdev     0.519188                       # Number of insts commited each cycle
system.cpu.commit.committed_per_cycle::underflows            0      0.00%      0.00% # Number of insts commited each cycle
system.cpu.commit.committed_per_cycle::0    226418018     64.38%     64.38% # Number of insts commited each cycle
system.cpu.commit.committed_per_cycle::1    119010289     33.84%     98.23% # Number of insts commited each cycle
system.cpu.commit.committed_per_cycle::2      6235308      1.77%    100.00% # Number of insts commited each cycle
system.cpu.commit.committed_per_cycle::overflows            0      0.00%    100.00% # Number of insts commited each cycle
system.cpu.commit.committed_per_cycle::min_value            0                       # Number of insts commited each cycle
system.cpu.commit.committed_per_cycle::max_value            2                       # Number of insts commited each cycle
system.cpu.commit.committed_per_cycle::total    351663615                       # Number of insts commited each cycle
system.cpu.commit.committedInsts            100000001                       # Number of instructions committed
system.cpu.commit.committedOps              131480905                       # Number of ops (including micro ops) committed
system.cpu.commit.swp_count                         0                       # Number of s/w prefetches committed
system.cpu.commit.refs                       48453083                       # Number of memory references committed
system.cpu.commit.loads                      24097786                       # Number of loads committed
system.cpu.commit.membars                           0                       # Number of memory barriers committed
system.cpu.commit.branches                    8581311                       # Number of branches committed
system.cpu.commit.fp_insts                          0                       # Number of committed floating point instructions.
system.cpu.commit.int_insts                 131480904                       # Number of committed integer instructions.
system.cpu.commit.function_calls                    0                       # Number of function calls committed.
system.cpu.commit.bw_lim_events               6235308                       # number cycles where commit BW limit reached
system.cpu.commit.bw_limited                        0                       # number of insts not committed due to BW limits
system.cpu.rob.rob_reads                    477089261                       # The number of ROB reads
system.cpu.rob.rob_writes                   263521956                       # The number of ROB writes
system.cpu.timesIdled                         2400359                       # Number of times that the entire CPU went into an idle state and unscheduled itself
system.cpu.idleCycles                       193149525                       # Total number of cycles that the CPU has spent unscheduled due to idling
system.cpu.committedInsts                   100000001                       # Number of Instructions Simulated
system.cpu.committedOps                     131480905                       # Number of Ops (including micro ops) Simulated
system.cpu.committedInsts_total             100000001                       # Number of Instructions Simulated
system.cpu.cpi                               5.450132                       # CPI: Cycles Per Instruction
system.cpu.cpi_total                         5.450132                       # CPI: Total CPI of All Threads
system.cpu.ipc                               0.183482                       # IPC: Instructions Per Cycle
system.cpu.ipc_total                         0.183482                       # IPC: Total IPC of All Threads
system.cpu.int_regfile_reads                336311225                       # number of integer regfile reads
system.cpu.int_regfile_writes               158233824                       # number of integer regfile writes
system.cpu.misc_regfile_reads                65577039                       # number of misc regfile reads
system.cpu.itb_walker_cache.replacements            0                       # number of replacements
system.cpu.itb_walker_cache.tagsinuse               0                       # Cycle average of tags in use
system.cpu.itb_walker_cache.total_refs              0                       # Total number of references to valid blocks.
system.cpu.itb_walker_cache.sampled_refs            0                       # Sample count of references to valid blocks.
system.cpu.itb_walker_cache.avg_refs              nan                       # Average number of references to valid blocks.
system.cpu.itb_walker_cache.warmup_cycle            0                       # Cycle when the warmup percentage was hit.
system.cpu.itb_walker_cache.blocked_cycles::no_mshrs            0                       # number of cycles access was blocked
system.cpu.itb_walker_cache.blocked_cycles::no_targets            0                       # number of cycles access was blocked
system.cpu.itb_walker_cache.blocked::no_mshrs            0                       # number of cycles access was blocked
system.cpu.itb_walker_cache.blocked::no_targets            0                       # number of cycles access was blocked
system.cpu.itb_walker_cache.avg_blocked_cycles::no_mshrs          nan                       # average number of cycles each access was blocked
system.cpu.itb_walker_cache.avg_blocked_cycles::no_targets          nan                       # average number of cycles each access was blocked
system.cpu.itb_walker_cache.fast_writes             0                       # number of fast writes performed
system.cpu.itb_walker_cache.cache_copies            0                       # number of cache copies performed
system.cpu.itb_walker_cache.no_allocate_misses            0                       # Number of misses that were no-allocate
system.cpu.dtb_walker_cache.replacements            0                       # number of replacements
system.cpu.dtb_walker_cache.tagsinuse               0                       # Cycle average of tags in use
system.cpu.dtb_walker_cache.total_refs              0                       # Total number of references to valid blocks.
system.cpu.dtb_walker_cache.sampled_refs            0                       # Sample count of references to valid blocks.
system.cpu.dtb_walker_cache.avg_refs              nan                       # Average number of references to valid blocks.
system.cpu.dtb_walker_cache.warmup_cycle            0                       # Cycle when the warmup percentage was hit.
system.cpu.dtb_walker_cache.blocked_cycles::no_mshrs            0                       # number of cycles access was blocked
system.cpu.dtb_walker_cache.blocked_cycles::no_targets            0                       # number of cycles access was blocked
system.cpu.dtb_walker_cache.blocked::no_mshrs            0                       # number of cycles access was blocked
system.cpu.dtb_walker_cache.blocked::no_targets            0                       # number of cycles access was blocked
system.cpu.dtb_walker_cache.avg_blocked_cycles::no_mshrs          nan                       # average number of cycles each access was blocked
system.cpu.dtb_walker_cache.avg_blocked_cycles::no_targets          nan                       # average number of cycles each access was blocked
system.cpu.dtb_walker_cache.fast_writes             0                       # number of fast writes performed
system.cpu.dtb_walker_cache.cache_copies            0                       # number of cache copies performed
system.cpu.dtb_walker_cache.no_allocate_misses            0                       # Number of misses that were no-allocate
system.cpu.icache.replacements                      0                       # number of replacements
system.cpu.icache.tagsinuse                  9.894102                       # Cycle average of tags in use
system.cpu.icache.total_refs                 10005320                       # Total number of references to valid blocks.
system.cpu.icache.sampled_refs                     10                       # Sample count of references to valid blocks.
system.cpu.icache.avg_refs                    1000532                       # Average number of references to valid blocks.
system.cpu.icache.warmup_cycle                      0                       # Cycle when the warmup percentage was hit.
system.cpu.icache.occ_blocks::cpu.inst       9.894102                       # Average occupied blocks per requestor
system.cpu.icache.occ_percent::cpu.inst      0.019324                       # Average percentage of cache occupancy
system.cpu.icache.occ_percent::total         0.019324                       # Average percentage of cache occupancy
system.cpu.icache.ReadReq_hits::cpu.inst     10005320                       # number of ReadReq hits
system.cpu.icache.ReadReq_hits::total        10005320                       # number of ReadReq hits
system.cpu.icache.demand_hits::cpu.inst      10005320                       # number of demand (read+write) hits
system.cpu.icache.demand_hits::total         10005320                       # number of demand (read+write) hits
system.cpu.icache.overall_hits::cpu.inst     10005320                       # number of overall hits
system.cpu.icache.overall_hits::total        10005320                       # number of overall hits
system.cpu.icache.ReadReq_misses::cpu.inst           10                       # number of ReadReq misses
system.cpu.icache.ReadReq_misses::total            10                       # number of ReadReq misses
system.cpu.icache.demand_misses::cpu.inst           10                       # number of demand (read+write) misses
system.cpu.icache.demand_misses::total             10                       # number of demand (read+write) misses
system.cpu.icache.overall_misses::cpu.inst           10                       # number of overall misses
system.cpu.icache.overall_misses::total            10                       # number of overall misses
system.cpu.icache.ReadReq_miss_latency::cpu.inst       581000                       # number of ReadReq miss cycles
system.cpu.icache.ReadReq_miss_latency::total       581000                       # number of ReadReq miss cycles
system.cpu.icache.demand_miss_latency::cpu.inst       581000                       # number of demand (read+write) miss cycles
system.cpu.icache.demand_miss_latency::total       581000                       # number of demand (read+write) miss cycles
system.cpu.icache.overall_miss_latency::cpu.inst       581000                       # number of overall miss cycles
system.cpu.icache.overall_miss_latency::total       581000                       # number of overall miss cycles
system.cpu.icache.ReadReq_accesses::cpu.inst     10005330                       # number of ReadReq accesses(hits+misses)
system.cpu.icache.ReadReq_accesses::total     10005330                       # number of ReadReq accesses(hits+misses)
system.cpu.icache.demand_accesses::cpu.inst     10005330                       # number of demand (read+write) accesses
system.cpu.icache.demand_accesses::total     10005330                       # number of demand (read+write) accesses
system.cpu.icache.overall_accesses::cpu.inst     10005330                       # number of overall (read+write) accesses
system.cpu.icache.overall_accesses::total     10005330                       # number of overall (read+write) accesses
system.cpu.icache.ReadReq_miss_rate::cpu.inst     0.000001                       # miss rate for ReadReq accesses
system.cpu.icache.ReadReq_miss_rate::total     0.000001                       # miss rate for ReadReq accesses
system.cpu.icache.demand_miss_rate::cpu.inst     0.000001                       # miss rate for demand accesses
system.cpu.icache.demand_miss_rate::total     0.000001                       # miss rate for demand accesses
system.cpu.icache.overall_miss_rate::cpu.inst     0.000001                       # miss rate for overall accesses
system.cpu.icache.overall_miss_rate::total     0.000001                       # miss rate for overall accesses
system.cpu.icache.ReadReq_avg_miss_latency::cpu.inst        58100                       # average ReadReq miss latency
system.cpu.icache.ReadReq_avg_miss_latency::total        58100                       # average ReadReq miss latency
system.cpu.icache.demand_avg_miss_latency::cpu.inst        58100                       # average overall miss latency
system.cpu.icache.demand_avg_miss_latency::total        58100                       # average overall miss latency
system.cpu.icache.overall_avg_miss_latency::cpu.inst        58100                       # average overall miss latency
system.cpu.icache.overall_avg_miss_latency::total        58100                       # average overall miss latency
system.cpu.icache.blocked_cycles::no_mshrs            0                       # number of cycles access was blocked
system.cpu.icache.blocked_cycles::no_targets            0                       # number of cycles access was blocked
system.cpu.icache.blocked::no_mshrs                 0                       # number of cycles access was blocked
system.cpu.icache.blocked::no_targets               0                       # number of cycles access was blocked
system.cpu.icache.avg_blocked_cycles::no_mshrs          nan                       # average number of cycles each access was blocked
system.cpu.icache.avg_blocked_cycles::no_targets          nan                       # average number of cycles each access was blocked
system.cpu.icache.fast_writes                       0                       # number of fast writes performed
system.cpu.icache.cache_copies                      0                       # number of cache copies performed
system.cpu.icache.ReadReq_mshr_misses::cpu.inst           10                       # number of ReadReq MSHR misses
system.cpu.icache.ReadReq_mshr_misses::total           10                       # number of ReadReq MSHR misses
system.cpu.icache.demand_mshr_misses::cpu.inst           10                       # number of demand (read+write) MSHR misses
system.cpu.icache.demand_mshr_misses::total           10                       # number of demand (read+write) MSHR misses
system.cpu.icache.overall_mshr_misses::cpu.inst           10                       # number of overall MSHR misses
system.cpu.icache.overall_mshr_misses::total           10                       # number of overall MSHR misses
system.cpu.icache.ReadReq_mshr_miss_latency::cpu.inst       561000                       # number of ReadReq MSHR miss cycles
system.cpu.icache.ReadReq_mshr_miss_latency::total       561000                       # number of ReadReq MSHR miss cycles
system.cpu.icache.demand_mshr_miss_latency::cpu.inst       561000                       # number of demand (read+write) MSHR miss cycles
system.cpu.icache.demand_mshr_miss_latency::total       561000                       # number of demand (read+write) MSHR miss cycles
system.cpu.icache.overall_mshr_miss_latency::cpu.inst       561000                       # number of overall MSHR miss cycles
system.cpu.icache.overall_mshr_miss_latency::total       561000                       # number of overall MSHR miss cycles
system.cpu.icache.ReadReq_mshr_miss_rate::cpu.inst     0.000001                       # mshr miss rate for ReadReq accesses
system.cpu.icache.ReadReq_mshr_miss_rate::total     0.000001                       # mshr miss rate for ReadReq accesses
system.cpu.icache.demand_mshr_miss_rate::cpu.inst     0.000001                       # mshr miss rate for demand accesses
system.cpu.icache.demand_mshr_miss_rate::total     0.000001                       # mshr miss rate for demand accesses
system.cpu.icache.overall_mshr_miss_rate::cpu.inst     0.000001                       # mshr miss rate for overall accesses
system.cpu.icache.overall_mshr_miss_rate::total     0.000001                       # mshr miss rate for overall accesses
system.cpu.icache.ReadReq_avg_mshr_miss_latency::cpu.inst        56100                       # average ReadReq mshr miss latency
system.cpu.icache.ReadReq_avg_mshr_miss_latency::total        56100                       # average ReadReq mshr miss latency
system.cpu.icache.demand_avg_mshr_miss_latency::cpu.inst        56100                       # average overall mshr miss latency
system.cpu.icache.demand_avg_mshr_miss_latency::total        56100                       # average overall mshr miss latency
system.cpu.icache.overall_avg_mshr_miss_latency::cpu.inst        56100                       # average overall mshr miss latency
system.cpu.icache.overall_avg_mshr_miss_latency::total        56100                       # average overall mshr miss latency
system.cpu.icache.no_allocate_misses                0                       # Number of misses that were no-allocate
system.cpu.dcache.replacements                2915069                       # number of replacements
system.cpu.dcache.tagsinuse                511.887352                       # Cycle average of tags in use
system.cpu.dcache.total_refs                 45599190                       # Total number of references to valid blocks.
system.cpu.dcache.sampled_refs                2915581                       # Sample count of references to valid blocks.
system.cpu.dcache.avg_refs                  15.639830                       # Average number of references to valid blocks.
system.cpu.dcache.warmup_cycle           16444704744000                       # Cycle when the warmup percentage was hit.
system.cpu.dcache.occ_blocks::cpu.data     511.887352                       # Average occupied blocks per requestor
system.cpu.dcache.occ_percent::cpu.data      0.999780                       # Average percentage of cache occupancy
system.cpu.dcache.occ_percent::total         0.999780                       # Average percentage of cache occupancy
system.cpu.dcache.ReadReq_hits::cpu.data     21248050                       # number of ReadReq hits
system.cpu.dcache.ReadReq_hits::total        21248050                       # number of ReadReq hits
system.cpu.dcache.WriteReq_hits::cpu.data     24351140                       # number of WriteReq hits
system.cpu.dcache.WriteReq_hits::total       24351140                       # number of WriteReq hits
system.cpu.dcache.demand_hits::cpu.data      45599190                       # number of demand (read+write) hits
system.cpu.dcache.demand_hits::total         45599190                       # number of demand (read+write) hits
system.cpu.dcache.overall_hits::cpu.data     45599190                       # number of overall hits
system.cpu.dcache.overall_hits::total        45599190                       # number of overall hits
system.cpu.dcache.ReadReq_misses::cpu.data      2911450                       # number of ReadReq misses
system.cpu.dcache.ReadReq_misses::total       2911450                       # number of ReadReq misses
system.cpu.dcache.WriteReq_misses::cpu.data         4154                       # number of WriteReq misses
system.cpu.dcache.WriteReq_misses::total         4154                       # number of WriteReq misses
system.cpu.dcache.demand_misses::cpu.data      2915604                       # number of demand (read+write) misses
system.cpu.dcache.demand_misses::total        2915604                       # number of demand (read+write) misses
system.cpu.dcache.overall_misses::cpu.data      2915604                       # number of overall misses
system.cpu.dcache.overall_misses::total       2915604                       # number of overall misses
system.cpu.dcache.ReadReq_miss_latency::cpu.data 156619766500                       # number of ReadReq miss cycles
system.cpu.dcache.ReadReq_miss_latency::total 156619766500                       # number of ReadReq miss cycles
system.cpu.dcache.WriteReq_miss_latency::cpu.data     55282500                       # number of WriteReq miss cycles
system.cpu.dcache.WriteReq_miss_latency::total     55282500                       # number of WriteReq miss cycles
system.cpu.dcache.demand_miss_latency::cpu.data 156675049000                       # number of demand (read+write) miss cycles
system.cpu.dcache.demand_miss_latency::total 156675049000                       # number of demand (read+write) miss cycles
system.cpu.dcache.overall_miss_latency::cpu.data 156675049000                       # number of overall miss cycles
system.cpu.dcache.overall_miss_latency::total 156675049000                       # number of overall miss cycles
system.cpu.dcache.ReadReq_accesses::cpu.data     24159500                       # number of ReadReq accesses(hits+misses)
system.cpu.dcache.ReadReq_accesses::total     24159500                       # number of ReadReq accesses(hits+misses)
system.cpu.dcache.WriteReq_accesses::cpu.data     24355294                       # number of WriteReq accesses(hits+misses)
system.cpu.dcache.WriteReq_accesses::total     24355294                       # number of WriteReq accesses(hits+misses)
system.cpu.dcache.demand_accesses::cpu.data     48514794                       # number of demand (read+write) accesses
system.cpu.dcache.demand_accesses::total     48514794                       # number of demand (read+write) accesses
system.cpu.dcache.overall_accesses::cpu.data     48514794                       # number of overall (read+write) accesses
system.cpu.dcache.overall_accesses::total     48514794                       # number of overall (read+write) accesses
system.cpu.dcache.ReadReq_miss_rate::cpu.data     0.120510                       # miss rate for ReadReq accesses
system.cpu.dcache.ReadReq_miss_rate::total     0.120510                       # miss rate for ReadReq accesses
system.cpu.dcache.WriteReq_miss_rate::cpu.data     0.000171                       # miss rate for WriteReq accesses
system.cpu.dcache.WriteReq_miss_rate::total     0.000171                       # miss rate for WriteReq accesses
system.cpu.dcache.demand_miss_rate::cpu.data     0.060097                       # miss rate for demand accesses
system.cpu.dcache.demand_miss_rate::total     0.060097                       # miss rate for demand accesses
system.cpu.dcache.overall_miss_rate::cpu.data     0.060097                       # miss rate for overall accesses
system.cpu.dcache.overall_miss_rate::total     0.060097                       # miss rate for overall accesses
system.cpu.dcache.ReadReq_avg_miss_latency::cpu.data 53794.420821                       # average ReadReq miss latency
system.cpu.dcache.ReadReq_avg_miss_latency::total 53794.420821                       # average ReadReq miss latency
system.cpu.dcache.WriteReq_avg_miss_latency::cpu.data 13308.257102                       # average WriteReq miss latency
system.cpu.dcache.WriteReq_avg_miss_latency::total 13308.257102                       # average WriteReq miss latency
system.cpu.dcache.demand_avg_miss_latency::cpu.data 53736.738254                       # average overall miss latency
system.cpu.dcache.demand_avg_miss_latency::total 53736.738254                       # average overall miss latency
system.cpu.dcache.overall_avg_miss_latency::cpu.data 53736.738254                       # average overall miss latency
system.cpu.dcache.overall_avg_miss_latency::total 53736.738254                       # average overall miss latency
system.cpu.dcache.blocked_cycles::no_mshrs            0                       # number of cycles access was blocked
system.cpu.dcache.blocked_cycles::no_targets            0                       # number of cycles access was blocked
system.cpu.dcache.blocked::no_mshrs                 0                       # number of cycles access was blocked
system.cpu.dcache.blocked::no_targets               0                       # number of cycles access was blocked
system.cpu.dcache.avg_blocked_cycles::no_mshrs          nan                       # average number of cycles each access was blocked
system.cpu.dcache.avg_blocked_cycles::no_targets          nan                       # average number of cycles each access was blocked
system.cpu.dcache.fast_writes                       0                       # number of fast writes performed
system.cpu.dcache.cache_copies                      0                       # number of cache copies performed
system.cpu.dcache.writebacks::writebacks      1483796                       # number of writebacks
system.cpu.dcache.writebacks::total           1483796                       # number of writebacks
system.cpu.dcache.ReadReq_mshr_hits::cpu.data           23                       # number of ReadReq MSHR hits
system.cpu.dcache.ReadReq_mshr_hits::total           23                       # number of ReadReq MSHR hits
system.cpu.dcache.demand_mshr_hits::cpu.data           23                       # number of demand (read+write) MSHR hits
system.cpu.dcache.demand_mshr_hits::total           23                       # number of demand (read+write) MSHR hits
system.cpu.dcache.overall_mshr_hits::cpu.data           23                       # number of overall MSHR hits
system.cpu.dcache.overall_mshr_hits::total           23                       # number of overall MSHR hits
system.cpu.dcache.ReadReq_mshr_misses::cpu.data      2911427                       # number of ReadReq MSHR misses
system.cpu.dcache.ReadReq_mshr_misses::total      2911427                       # number of ReadReq MSHR misses
system.cpu.dcache.WriteReq_mshr_misses::cpu.data         4154                       # number of WriteReq MSHR misses
system.cpu.dcache.WriteReq_mshr_misses::total         4154                       # number of WriteReq MSHR misses
system.cpu.dcache.demand_mshr_misses::cpu.data      2915581                       # number of demand (read+write) MSHR misses
system.cpu.dcache.demand_mshr_misses::total      2915581                       # number of demand (read+write) MSHR misses
system.cpu.dcache.overall_mshr_misses::cpu.data      2915581                       # number of overall MSHR misses
system.cpu.dcache.overall_mshr_misses::total      2915581                       # number of overall MSHR misses
system.cpu.dcache.ReadReq_mshr_miss_latency::cpu.data 150795877500                       # number of ReadReq MSHR miss cycles
system.cpu.dcache.ReadReq_mshr_miss_latency::total 150795877500                       # number of ReadReq MSHR miss cycles
system.cpu.dcache.WriteReq_mshr_miss_latency::cpu.data     46974500                       # number of WriteReq MSHR miss cycles
system.cpu.dcache.WriteReq_mshr_miss_latency::total     46974500                       # number of WriteReq MSHR miss cycles
system.cpu.dcache.demand_mshr_miss_latency::cpu.data 150842852000                       # number of demand (read+write) MSHR miss cycles
system.cpu.dcache.demand_mshr_miss_latency::total 150842852000                       # number of demand (read+write) MSHR miss cycles
system.cpu.dcache.overall_mshr_miss_latency::cpu.data 150842852000                       # number of overall MSHR miss cycles
system.cpu.dcache.overall_mshr_miss_latency::total 150842852000                       # number of overall MSHR miss cycles
system.cpu.dcache.ReadReq_mshr_miss_rate::cpu.data     0.120509                       # mshr miss rate for ReadReq accesses
system.cpu.dcache.ReadReq_mshr_miss_rate::total     0.120509                       # mshr miss rate for ReadReq accesses
system.cpu.dcache.WriteReq_mshr_miss_rate::cpu.data     0.000171                       # mshr miss rate for WriteReq accesses
system.cpu.dcache.WriteReq_mshr_miss_rate::total     0.000171                       # mshr miss rate for WriteReq accesses
system.cpu.dcache.demand_mshr_miss_rate::cpu.data     0.060097                       # mshr miss rate for demand accesses
system.cpu.dcache.demand_mshr_miss_rate::total     0.060097                       # mshr miss rate for demand accesses
system.cpu.dcache.overall_mshr_miss_rate::cpu.data     0.060097                       # mshr miss rate for overall accesses
system.cpu.dcache.overall_mshr_miss_rate::total     0.060097                       # mshr miss rate for overall accesses
system.cpu.dcache.ReadReq_avg_mshr_miss_latency::cpu.data 51794.490296                       # average ReadReq mshr miss latency
system.cpu.dcache.ReadReq_avg_mshr_miss_latency::total 51794.490296                       # average ReadReq mshr miss latency
system.cpu.dcache.WriteReq_avg_mshr_miss_latency::cpu.data 11308.257102                       # average WriteReq mshr miss latency
system.cpu.dcache.WriteReq_avg_mshr_miss_latency::total 11308.257102                       # average WriteReq mshr miss latency
system.cpu.dcache.demand_avg_mshr_miss_latency::cpu.data 51736.807175                       # average overall mshr miss latency
system.cpu.dcache.demand_avg_mshr_miss_latency::total 51736.807175                       # average overall mshr miss latency
system.cpu.dcache.overall_avg_mshr_miss_latency::cpu.data 51736.807175                       # average overall mshr miss latency
system.cpu.dcache.overall_avg_mshr_miss_latency::total 51736.807175                       # average overall mshr miss latency
system.cpu.dcache.no_allocate_misses                0                       # Number of misses that were no-allocate

---------- End Simulation Statistics   ----------
