
---------- Begin Simulation Statistics ----------
sim_seconds                                  0.102511                       # Number of seconds simulated
sim_ticks                                102511333000                       # Number of ticks simulated
final_tick                               1170480573000                       # Number of ticks from beginning of simulation (restored from checkpoints and never reset)
sim_freq                                 1000000000000                       # Frequency of simulated ticks
host_inst_rate                                  77410                       # Simulator instruction rate (inst/s)
host_op_rate                                   121585                       # Simulator op (including micro ops) rate (op/s)
host_tick_rate                               79353900                       # Simulator tick rate (ticks/s)
host_mem_usage                                2215624                       # Number of bytes of host memory used
host_seconds                                  1291.82                       # Real time elapsed on the host
sim_insts                                   100000000                       # Number of instructions simulated
sim_ops                                     157066184                       # Number of ops (including micro ops) simulated
system.physmem.bytes_read::cpu.inst              9280                       # Number of bytes read from this memory
system.physmem.bytes_read::cpu.data          50399680                       # Number of bytes read from this memory
system.physmem.bytes_read::total             50408960                       # Number of bytes read from this memory
system.physmem.bytes_inst_read::cpu.inst         9280                       # Number of instructions bytes read from this memory
system.physmem.bytes_inst_read::total            9280                       # Number of instructions bytes read from this memory
system.physmem.bytes_written::writebacks     44009088                       # Number of bytes written to this memory
system.physmem.bytes_written::total          44009088                       # Number of bytes written to this memory
system.physmem.num_reads::cpu.inst                145                       # Number of read requests responded to by this memory
system.physmem.num_reads::cpu.data             787495                       # Number of read requests responded to by this memory
system.physmem.num_reads::total                787640                       # Number of read requests responded to by this memory
system.physmem.num_writes::writebacks          687642                       # Number of write requests responded to by this memory
system.physmem.num_writes::total               687642                       # Number of write requests responded to by this memory
system.physmem.bw_read::cpu.inst                90527                       # Total read bandwidth from this memory (bytes/s)
system.physmem.bw_read::cpu.data            491649835                       # Total read bandwidth from this memory (bytes/s)
system.physmem.bw_read::total               491740362                       # Total read bandwidth from this memory (bytes/s)
system.physmem.bw_inst_read::cpu.inst           90527                       # Instruction read bandwidth from this memory (bytes/s)
system.physmem.bw_inst_read::total              90527                       # Instruction read bandwidth from this memory (bytes/s)
system.physmem.bw_write::writebacks         429309489                       # Write bandwidth from this memory (bytes/s)
system.physmem.bw_write::total              429309489                       # Write bandwidth from this memory (bytes/s)
system.physmem.bw_total::writebacks         429309489                       # Total bandwidth to/from this memory (bytes/s)
system.physmem.bw_total::cpu.inst               90527                       # Total bandwidth to/from this memory (bytes/s)
system.physmem.bw_total::cpu.data           491649835                       # Total bandwidth to/from this memory (bytes/s)
system.physmem.bw_total::total              921049851                       # Total bandwidth to/from this memory (bytes/s)
system.cpu.branchPred.lookups                11092550                       # Number of BP lookups
system.cpu.branchPred.condPredicted          11092550                       # Number of conditional branches predicted
system.cpu.branchPred.condIncorrect             98469                       # Number of conditional branches incorrect
system.cpu.branchPred.BTBLookups             11092500                       # Number of BTB lookups
system.cpu.branchPred.BTBHits                10666219                       # Number of BTB hits
system.cpu.branchPred.BTBCorrect                    0                       # Number of correct BTB predictions (this stat may not work properly.
system.cpu.branchPred.BTBHitPct             96.157034                       # BTB Hit Percentage
system.cpu.branchPred.usedRAS                       0                       # Number of times the RAS was used to get a target.
system.cpu.branchPred.RASInCorrect                  0                       # Number of incorrect RAS predictions.
system.cpu.workload.num_syscalls                    1                       # Number of system calls
system.cpu.numCycles                        205022666                       # number of cpu cycles simulated
system.cpu.numWorkItemsStarted                      0                       # number of work items this cpu started
system.cpu.numWorkItemsCompleted                    0                       # number of work items this cpu completed
system.cpu.fetch.icacheStallCycles           21302804                       # Number of cycles fetch is stalled on an Icache miss
system.cpu.fetch.Insts                      100426772                       # Number of instructions fetch has processed
system.cpu.fetch.Branches                    11092550                       # Number of branches that fetch encountered
system.cpu.fetch.predictedBranches           10666219                       # Number of branches that fetch has predicted taken
system.cpu.fetch.Cycles                      55102524                       # Number of cycles fetch has run and was not squashing or blocked
system.cpu.fetch.SquashCycles                  196956                       # Number of cycles fetch has spent squashing
system.cpu.fetch.BlockedCycles              124369344                       # Number of cycles fetch has spent blocked
system.cpu.fetch.CacheLines                  21201632                       # Number of cache lines fetched
system.cpu.fetch.IcacheSquashes                    43                       # Number of outstanding Icache misses that were squashed
system.cpu.fetch.rateDist::samples          200873158                       # Number of instructions fetched each cycle (Total)
system.cpu.fetch.rateDist::mean              0.786491                       # Number of instructions fetched each cycle (Total)
system.cpu.fetch.rateDist::stdev             1.487083                       # Number of instructions fetched each cycle (Total)
system.cpu.fetch.rateDist::underflows               0      0.00%      0.00% # Number of instructions fetched each cycle (Total)
system.cpu.fetch.rateDist::0                145869465     72.62%     72.62% # Number of instructions fetched each cycle (Total)
system.cpu.fetch.rateDist::1                 20316138     10.11%     82.73% # Number of instructions fetched each cycle (Total)
system.cpu.fetch.rateDist::2                   360473      0.18%     82.91% # Number of instructions fetched each cycle (Total)
system.cpu.fetch.rateDist::3                   360499      0.18%     83.09% # Number of instructions fetched each cycle (Total)
system.cpu.fetch.rateDist::4                 33966583     16.91%    100.00% # Number of instructions fetched each cycle (Total)
system.cpu.fetch.rateDist::overflows                0      0.00%    100.00% # Number of instructions fetched each cycle (Total)
system.cpu.fetch.rateDist::min_value                0                       # Number of instructions fetched each cycle (Total)
system.cpu.fetch.rateDist::max_value                4                       # Number of instructions fetched each cycle (Total)
system.cpu.fetch.rateDist::total            200873158                       # Number of instructions fetched each cycle (Total)
system.cpu.fetch.branchRate                  0.054104                       # Number of branch fetches per cycle
system.cpu.fetch.rate                        0.489833                       # Number of inst fetches per cycle
system.cpu.decode.IdleCycles                 48992357                       # Number of cycles decode is idle
system.cpu.decode.BlockedCycles              96844215                       # Number of cycles decode is blocked
system.cpu.decode.RunCycles                  43027454                       # Number of cycles decode is running
system.cpu.decode.UnblockCycles              11910642                       # Number of cycles decode is unblocking
system.cpu.decode.SquashCycles                  98486                       # Number of cycles decode is squashing
system.cpu.decode.DecodedInsts              157722559                       # Number of instructions handled by decode
system.cpu.rename.SquashCycles                  98486                       # Number of cycles rename is squashing
system.cpu.rename.IdleCycles                 60163146                       # Number of cycles rename is idle
system.cpu.rename.BlockCycles                60097765                       # Number of cycles rename is blocking
system.cpu.rename.serializeStallCycles             11                       # count of cycles rename stalled for serializing inst
system.cpu.rename.RunCycles                  33151788                       # Number of cycles rename is running
system.cpu.rename.UnblockCycles              47361960                       # Number of cycles rename is unblocking
system.cpu.rename.RenamedInsts              157460131                       # Number of instructions processed by rename
system.cpu.rename.IQFullEvents               31505082                       # Number of times rename has blocked due to IQ full
system.cpu.rename.LSQFullEvents                  5610                       # Number of times rename has blocked due to LSQ full
system.cpu.rename.RenamedOperands           219841601                       # Number of destination operands rename has renamed
system.cpu.rename.RenameLookups             358945913                       # Number of register rename lookups that rename has made
system.cpu.rename.int_rename_lookups        343512067                       # Number of integer rename lookups
system.cpu.rename.fp_rename_lookups          15433846                       # Number of floating rename lookups
system.cpu.rename.CommittedMaps             219545710                       # Number of HB maps that are committed
system.cpu.rename.UndoneMaps                   295885                       # Number of HB maps that are undone due to squashing
system.cpu.rename.serializingInsts                  1                       # count of serializing insts renamed
system.cpu.rename.tempSerializingInsts              1                       # count of temporary serializing insts renamed
system.cpu.rename.skidInsts                  65584481                       # count of insts added to the skid buffer
system.cpu.memDep0.insertedLoads             22675241                       # Number of loads inserted to the mem dependence unit.
system.cpu.memDep0.insertedStores            11100115                       # Number of stores inserted to the mem dependence unit.
system.cpu.memDep0.conflictingLoads                15                       # Number of conflicting loads.
system.cpu.memDep0.conflictingStores               10                       # Number of conflicting stores.
system.cpu.iq.iqInstsAdded                  157066596                       # Number of instructions added to the IQ (excludes non-spec)
system.cpu.iq.iqNonSpecInstsAdded                  28                       # Number of non-speculative instructions added to the IQ
system.cpu.iq.iqInstsIssued                 157164871                       # Number of instructions issued
system.cpu.iq.iqSquashedInstsIssued                 2                       # Number of squashed instructions issued
system.cpu.iq.iqSquashedInstsExamined             273                       # Number of squashed instructions iterated over during squash; mainly for profiling
system.cpu.iq.iqSquashedOperandsExamined          362                       # Number of squashed operands that are examined and possibly removed from graph
system.cpu.iq.iqSquashedNonSpecRemoved              7                       # Number of squashed non-spec instructions that were removed
system.cpu.iq.issued_per_cycle::samples     200873158                       # Number of insts issued each cycle
system.cpu.iq.issued_per_cycle::mean         0.782409                       # Number of insts issued each cycle
system.cpu.iq.issued_per_cycle::stdev        0.959305                       # Number of insts issued each cycle
system.cpu.iq.issued_per_cycle::underflows            0      0.00%      0.00% # Number of insts issued each cycle
system.cpu.iq.issued_per_cycle::0           103162626     51.36%     51.36% # Number of insts issued each cycle
system.cpu.iq.issued_per_cycle::1            54033231     26.90%     78.26% # Number of insts issued each cycle
system.cpu.iq.issued_per_cycle::2            27998313     13.94%     92.19% # Number of insts issued each cycle
system.cpu.iq.issued_per_cycle::3            15580938      7.76%     99.95% # Number of insts issued each cycle
system.cpu.iq.issued_per_cycle::4               98050      0.05%    100.00% # Number of insts issued each cycle
system.cpu.iq.issued_per_cycle::overflows            0      0.00%    100.00% # Number of insts issued each cycle
system.cpu.iq.issued_per_cycle::min_value            0                       # Number of insts issued each cycle
system.cpu.iq.issued_per_cycle::max_value            4                       # Number of insts issued each cycle
system.cpu.iq.issued_per_cycle::total       200873158                       # Number of insts issued each cycle
system.cpu.iq.fu_full::No_OpClass                   0      0.00%      0.00% # attempts to use FU when none available
system.cpu.iq.fu_full::IntAlu                      16      0.00%      0.00% # attempts to use FU when none available
system.cpu.iq.fu_full::IntMult                      0      0.00%      0.00% # attempts to use FU when none available
system.cpu.iq.fu_full::IntDiv                       0      0.00%      0.00% # attempts to use FU when none available
system.cpu.iq.fu_full::FloatAdd               2256205    100.00%    100.00% # attempts to use FU when none available
system.cpu.iq.fu_full::FloatCmp                     0      0.00%    100.00% # attempts to use FU when none available
system.cpu.iq.fu_full::FloatCvt                     0      0.00%    100.00% # attempts to use FU when none available
system.cpu.iq.fu_full::FloatMult                    0      0.00%    100.00% # attempts to use FU when none available
system.cpu.iq.fu_full::FloatDiv                     0      0.00%    100.00% # attempts to use FU when none available
system.cpu.iq.fu_full::FloatSqrt                    0      0.00%    100.00% # attempts to use FU when none available
system.cpu.iq.fu_full::SimdAdd                      0      0.00%    100.00% # attempts to use FU when none available
system.cpu.iq.fu_full::SimdAddAcc                   0      0.00%    100.00% # attempts to use FU when none available
system.cpu.iq.fu_full::SimdAlu                      0      0.00%    100.00% # attempts to use FU when none available
system.cpu.iq.fu_full::SimdCmp                      0      0.00%    100.00% # attempts to use FU when none available
system.cpu.iq.fu_full::SimdCvt                      0      0.00%    100.00% # attempts to use FU when none available
system.cpu.iq.fu_full::SimdMisc                     0      0.00%    100.00% # attempts to use FU when none available
system.cpu.iq.fu_full::SimdMult                     0      0.00%    100.00% # attempts to use FU when none available
system.cpu.iq.fu_full::SimdMultAcc                  0      0.00%    100.00% # attempts to use FU when none available
system.cpu.iq.fu_full::SimdShift                    0      0.00%    100.00% # attempts to use FU when none available
system.cpu.iq.fu_full::SimdShiftAcc                 0      0.00%    100.00% # attempts to use FU when none available
system.cpu.iq.fu_full::SimdSqrt                     0      0.00%    100.00% # attempts to use FU when none available
system.cpu.iq.fu_full::SimdFloatAdd                 0      0.00%    100.00% # attempts to use FU when none available
system.cpu.iq.fu_full::SimdFloatAlu                 0      0.00%    100.00% # attempts to use FU when none available
system.cpu.iq.fu_full::SimdFloatCmp                 0      0.00%    100.00% # attempts to use FU when none available
system.cpu.iq.fu_full::SimdFloatCvt                 0      0.00%    100.00% # attempts to use FU when none available
system.cpu.iq.fu_full::SimdFloatDiv                 0      0.00%    100.00% # attempts to use FU when none available
system.cpu.iq.fu_full::SimdFloatMisc                0      0.00%    100.00% # attempts to use FU when none available
system.cpu.iq.fu_full::SimdFloatMult                0      0.00%    100.00% # attempts to use FU when none available
system.cpu.iq.fu_full::SimdFloatMultAcc             0      0.00%    100.00% # attempts to use FU when none available
system.cpu.iq.fu_full::SimdFloatSqrt                0      0.00%    100.00% # attempts to use FU when none available
system.cpu.iq.fu_full::MemRead                      0      0.00%    100.00% # attempts to use FU when none available
system.cpu.iq.fu_full::MemWrite                     0      0.00%    100.00% # attempts to use FU when none available
system.cpu.iq.fu_full::IprAccess                    0      0.00%    100.00% # attempts to use FU when none available
system.cpu.iq.fu_full::InstPrefetch                 0      0.00%    100.00% # attempts to use FU when none available
system.cpu.iq.FU_type_0::No_OpClass                33      0.00%      0.00% # Type of FU issued
system.cpu.iq.FU_type_0::IntAlu             117720603     74.90%     74.90% # Type of FU issued
system.cpu.iq.FU_type_0::IntMult                    0      0.00%     74.90% # Type of FU issued
system.cpu.iq.FU_type_0::IntDiv                     0      0.00%     74.90% # Type of FU issued
system.cpu.iq.FU_type_0::FloatAdd             5570588      3.54%     78.45% # Type of FU issued
system.cpu.iq.FU_type_0::FloatCmp                   0      0.00%     78.45% # Type of FU issued
system.cpu.iq.FU_type_0::FloatCvt                   0      0.00%     78.45% # Type of FU issued
system.cpu.iq.FU_type_0::FloatMult                  0      0.00%     78.45% # Type of FU issued
system.cpu.iq.FU_type_0::FloatDiv                   0      0.00%     78.45% # Type of FU issued
system.cpu.iq.FU_type_0::FloatSqrt                  0      0.00%     78.45% # Type of FU issued
system.cpu.iq.FU_type_0::SimdAdd                    0      0.00%     78.45% # Type of FU issued
system.cpu.iq.FU_type_0::SimdAddAcc                 0      0.00%     78.45% # Type of FU issued
system.cpu.iq.FU_type_0::SimdAlu                    0      0.00%     78.45% # Type of FU issued
system.cpu.iq.FU_type_0::SimdCmp                    0      0.00%     78.45% # Type of FU issued
system.cpu.iq.FU_type_0::SimdCvt                    0      0.00%     78.45% # Type of FU issued
system.cpu.iq.FU_type_0::SimdMisc                   0      0.00%     78.45% # Type of FU issued
system.cpu.iq.FU_type_0::SimdMult                   0      0.00%     78.45% # Type of FU issued
system.cpu.iq.FU_type_0::SimdMultAcc                0      0.00%     78.45% # Type of FU issued
system.cpu.iq.FU_type_0::SimdShift                  0      0.00%     78.45% # Type of FU issued
system.cpu.iq.FU_type_0::SimdShiftAcc               0      0.00%     78.45% # Type of FU issued
system.cpu.iq.FU_type_0::SimdSqrt                   0      0.00%     78.45% # Type of FU issued
system.cpu.iq.FU_type_0::SimdFloatAdd               0      0.00%     78.45% # Type of FU issued
system.cpu.iq.FU_type_0::SimdFloatAlu               0      0.00%     78.45% # Type of FU issued
system.cpu.iq.FU_type_0::SimdFloatCmp               0      0.00%     78.45% # Type of FU issued
system.cpu.iq.FU_type_0::SimdFloatCvt               0      0.00%     78.45% # Type of FU issued
system.cpu.iq.FU_type_0::SimdFloatDiv               0      0.00%     78.45% # Type of FU issued
system.cpu.iq.FU_type_0::SimdFloatMisc              0      0.00%     78.45% # Type of FU issued
system.cpu.iq.FU_type_0::SimdFloatMult              0      0.00%     78.45% # Type of FU issued
system.cpu.iq.FU_type_0::SimdFloatMultAcc            0      0.00%     78.45% # Type of FU issued
system.cpu.iq.FU_type_0::SimdFloatSqrt              0      0.00%     78.45% # Type of FU issued
system.cpu.iq.FU_type_0::MemRead             22773538     14.49%     92.94% # Type of FU issued
system.cpu.iq.FU_type_0::MemWrite            11100109      7.06%    100.00% # Type of FU issued
system.cpu.iq.FU_type_0::IprAccess                  0      0.00%    100.00% # Type of FU issued
system.cpu.iq.FU_type_0::InstPrefetch               0      0.00%    100.00% # Type of FU issued
system.cpu.iq.FU_type_0::total              157164871                       # Type of FU issued
system.cpu.iq.rate                           0.766573                       # Inst issue rate
system.cpu.iq.fu_busy_cnt                     2256221                       # FU busy when requested
system.cpu.iq.fu_busy_rate                   0.014356                       # FU busy rate (busy events/executed inst)
system.cpu.iq.int_inst_queue_reads          499998457                       # Number of integer instruction queue reads
system.cpu.iq.int_inst_queue_writes         149562957                       # Number of integer instruction queue writes
system.cpu.iq.int_inst_queue_wakeup_accesses    149562510                       # Number of integer instruction queue wakeup accesses
system.cpu.iq.fp_inst_queue_reads            17460666                       # Number of floating instruction queue reads
system.cpu.iq.fp_inst_queue_writes            7503941                       # Number of floating instruction queue writes
system.cpu.iq.fp_inst_queue_wakeup_accesses      7503913                       # Number of floating instruction queue wakeup accesses
system.cpu.iq.int_alu_accesses              149562624                       # Number of integer alu accesses
system.cpu.iq.fp_alu_accesses                 9858435                       # Number of floating point alu accesses
system.cpu.iew.lsq.thread0.forwLoads           196612                       # Number of loads that had data forwarded from stores
system.cpu.iew.lsq.thread0.invAddrLoads             0                       # Number of loads ignored due to an invalid address
system.cpu.iew.lsq.thread0.squashedLoads           76                       # Number of loads squashed
system.cpu.iew.lsq.thread0.ignoredResponses            0                       # Number of memory responses ignored because the instruction is squashed
system.cpu.iew.lsq.thread0.memOrderViolation            1                       # Number of memory ordering violations
system.cpu.iew.lsq.thread0.squashedStores           41                       # Number of stores squashed
system.cpu.iew.lsq.thread0.invAddrSwpfs             0                       # Number of software prefetches ignored due to an invalid address
system.cpu.iew.lsq.thread0.blockedLoads             0                       # Number of blocked loads due to partial load-store forwarding
system.cpu.iew.lsq.thread0.rescheduledLoads        98305                       # Number of loads that were rescheduled
system.cpu.iew.lsq.thread0.cacheBlocked             0                       # Number of times an access to memory failed due to the cache being blocked
system.cpu.iew.iewIdleCycles                        0                       # Number of cycles IEW is idle
system.cpu.iew.iewSquashCycles                  98486                       # Number of cycles IEW is squashing
system.cpu.iew.iewBlockCycles                 3193711                       # Number of cycles IEW is blocking
system.cpu.iew.iewUnblockCycles               5690355                       # Number of cycles IEW is unblocking
system.cpu.iew.iewDispatchedInsts           157066624                       # Number of instructions dispatched to IQ
system.cpu.iew.iewDispSquashedInsts            262486                       # Number of squashed instructions skipped by dispatch
system.cpu.iew.iewDispLoadInsts              22675241                       # Number of dispatched load instructions
system.cpu.iew.iewDispStoreInsts             11100115                       # Number of dispatched store instructions
system.cpu.iew.iewDispNonSpecInsts                  1                       # Number of dispatched non-speculative instructions
system.cpu.iew.iewIQFullEvents                5292638                       # Number of times the IQ has become full, causing a stall
system.cpu.iew.iewLSQFullEvents                   510                       # Number of times the LSQ has become full, causing a stall
system.cpu.iew.memOrderViolationEvents              1                       # Number of memory order violations
system.cpu.iew.predictedTakenIncorrect          98316                       # Number of branches that were predicted taken incorrectly
system.cpu.iew.predictedNotTakenIncorrect          154                       # Number of branches that were predicted not taken incorrectly
system.cpu.iew.branchMispredicts                98470                       # Number of branch mispredicts detected at execute
system.cpu.iew.iewExecutedInsts             157164771                       # Number of executed instructions
system.cpu.iew.iewExecLoadInsts              22773520                       # Number of load instructions executed
system.cpu.iew.iewExecSquashedInsts               100                       # Number of squashed instructions skipped in execute
system.cpu.iew.exec_swp                             0                       # number of swp insts executed
system.cpu.iew.exec_nop                             0                       # number of nop insts executed
system.cpu.iew.exec_refs                     33873620                       # number of memory reference insts executed
system.cpu.iew.exec_branches                 11092459                       # Number of branches executed
system.cpu.iew.exec_stores                   11100100                       # Number of stores executed
system.cpu.iew.exec_rate                     0.766573                       # Inst execution rate
system.cpu.iew.wb_sent                      157066423                       # cumulative count of insts sent to commit
system.cpu.iew.wb_count                     157066423                       # cumulative count of insts written-back
system.cpu.iew.wb_producers                  44944751                       # num instructions producing a value
system.cpu.iew.wb_consumers                  47446422                       # num instructions consuming a value
system.cpu.iew.wb_penalized                         0                       # number of instrctions required to write to 'other' IQ
system.cpu.iew.wb_rate                       0.766093                       # insts written-back per cycle
system.cpu.iew.wb_fanout                     0.947274                       # average fanout of values written-back
system.cpu.iew.wb_penalized_rate                    0                       # fraction of instructions written-back that wrote to 'other' IQ
system.cpu.commit.commitSquashedInsts             441                       # The number of squashed insts skipped by commit
system.cpu.commit.commitNonSpecStalls              21                       # The number of times commit has been forced to stall to communicate backwards
system.cpu.commit.branchMispredicts             98469                       # The number of times a branch was mispredicted
system.cpu.commit.committed_per_cycle::samples    200774672                       # Number of insts commited each cycle
system.cpu.commit.committed_per_cycle::mean     0.782301                       # Number of insts commited each cycle
system.cpu.commit.committed_per_cycle::stdev     1.114774                       # Number of insts commited each cycle
system.cpu.commit.committed_per_cycle::underflows            0      0.00%      0.00% # Number of insts commited each cycle
system.cpu.commit.committed_per_cycle::0    109332489     54.46%     54.46% # Number of insts commited each cycle
system.cpu.commit.committed_per_cycle::1     57507393     28.64%     83.10% # Number of insts commited each cycle
system.cpu.commit.committed_per_cycle::2     12589259      6.27%     89.37% # Number of insts commited each cycle
system.cpu.commit.committed_per_cycle::3     11001851      5.48%     94.85% # Number of insts commited each cycle
system.cpu.commit.committed_per_cycle::4     10343680      5.15%    100.00% # Number of insts commited each cycle
system.cpu.commit.committed_per_cycle::overflows            0      0.00%    100.00% # Number of insts commited each cycle
system.cpu.commit.committed_per_cycle::min_value            0                       # Number of insts commited each cycle
system.cpu.commit.committed_per_cycle::max_value            4                       # Number of insts commited each cycle
system.cpu.commit.committed_per_cycle::total    200774672                       # Number of insts commited each cycle
system.cpu.commit.committedInsts            100000000                       # Number of instructions committed
system.cpu.commit.committedOps              157066184                       # Number of ops (including micro ops) committed
system.cpu.commit.swp_count                         0                       # Number of s/w prefetches committed
system.cpu.commit.refs                       33775239                       # Number of memory references committed
system.cpu.commit.loads                      22675165                       # Number of loads committed
system.cpu.commit.membars                          20                       # Number of memory barriers committed
system.cpu.commit.branches                   11092456                       # Number of branches committed
system.cpu.commit.fp_insts                    7503910                       # Number of committed floating point instructions.
system.cpu.commit.int_insts                 151757722                       # Number of committed integer instructions.
system.cpu.commit.function_calls                    0                       # Number of function calls committed.
system.cpu.commit.bw_lim_events              10343680                       # number cycles where commit BW limit reached
system.cpu.commit.bw_limited                        0                       # number of insts not committed due to BW limits
system.cpu.rob.rob_reads                    347497617                       # The number of ROB reads
system.cpu.rob.rob_writes                   314231740                       # The number of ROB writes
system.cpu.timesIdled                          132482                       # Number of times that the entire CPU went into an idle state and unscheduled itself
system.cpu.idleCycles                         4149508                       # Total number of cycles that the CPU has spent unscheduled due to idling
system.cpu.committedInsts                   100000000                       # Number of Instructions Simulated
system.cpu.committedOps                     157066184                       # Number of Ops (including micro ops) Simulated
system.cpu.committedInsts_total             100000000                       # Number of Instructions Simulated
system.cpu.cpi                               2.050227                       # CPI: Cycles Per Instruction
system.cpu.cpi_total                         2.050227                       # CPI: Total CPI of All Threads
system.cpu.ipc                               0.487751                       # IPC: Instructions Per Cycle
system.cpu.ipc_total                         0.487751                       # IPC: Total IPC of All Threads
system.cpu.int_regfile_reads                294202941                       # number of integer regfile reads
system.cpu.int_regfile_writes               212959669                       # number of integer regfile writes
system.cpu.fp_regfile_reads                   8355867                       # number of floating regfile reads
system.cpu.fp_regfile_writes                  6586398                       # number of floating regfile writes
system.cpu.misc_regfile_reads                55993061                       # number of misc regfile reads
system.cpu.itb_walker_cache.replacements            0                       # number of replacements
system.cpu.itb_walker_cache.tagsinuse               0                       # Cycle average of tags in use
system.cpu.itb_walker_cache.total_refs              0                       # Total number of references to valid blocks.
system.cpu.itb_walker_cache.sampled_refs            0                       # Sample count of references to valid blocks.
system.cpu.itb_walker_cache.avg_refs              nan                       # Average number of references to valid blocks.
system.cpu.itb_walker_cache.warmup_cycle            0                       # Cycle when the warmup percentage was hit.
system.cpu.itb_walker_cache.blocked_cycles::no_mshrs            0                       # number of cycles access was blocked
system.cpu.itb_walker_cache.blocked_cycles::no_targets            0                       # number of cycles access was blocked
system.cpu.itb_walker_cache.blocked::no_mshrs            0                       # number of cycles access was blocked
system.cpu.itb_walker_cache.blocked::no_targets            0                       # number of cycles access was blocked
system.cpu.itb_walker_cache.avg_blocked_cycles::no_mshrs          nan                       # average number of cycles each access was blocked
system.cpu.itb_walker_cache.avg_blocked_cycles::no_targets          nan                       # average number of cycles each access was blocked
system.cpu.itb_walker_cache.fast_writes             0                       # number of fast writes performed
system.cpu.itb_walker_cache.cache_copies            0                       # number of cache copies performed
system.cpu.itb_walker_cache.no_allocate_misses            0                       # Number of misses that were no-allocate
system.cpu.dtb_walker_cache.replacements            0                       # number of replacements
system.cpu.dtb_walker_cache.tagsinuse               0                       # Cycle average of tags in use
system.cpu.dtb_walker_cache.total_refs              0                       # Total number of references to valid blocks.
system.cpu.dtb_walker_cache.sampled_refs            0                       # Sample count of references to valid blocks.
system.cpu.dtb_walker_cache.avg_refs              nan                       # Average number of references to valid blocks.
system.cpu.dtb_walker_cache.warmup_cycle            0                       # Cycle when the warmup percentage was hit.
system.cpu.dtb_walker_cache.blocked_cycles::no_mshrs            0                       # number of cycles access was blocked
system.cpu.dtb_walker_cache.blocked_cycles::no_targets            0                       # number of cycles access was blocked
system.cpu.dtb_walker_cache.blocked::no_mshrs            0                       # number of cycles access was blocked
system.cpu.dtb_walker_cache.blocked::no_targets            0                       # number of cycles access was blocked
system.cpu.dtb_walker_cache.avg_blocked_cycles::no_mshrs          nan                       # average number of cycles each access was blocked
system.cpu.dtb_walker_cache.avg_blocked_cycles::no_targets          nan                       # average number of cycles each access was blocked
system.cpu.dtb_walker_cache.fast_writes             0                       # number of fast writes performed
system.cpu.dtb_walker_cache.cache_copies            0                       # number of cache copies performed
system.cpu.dtb_walker_cache.no_allocate_misses            0                       # Number of misses that were no-allocate
system.cpu.icache.replacements                     17                       # number of replacements
system.cpu.icache.tagsinuse                 97.290457                       # Cycle average of tags in use
system.cpu.icache.total_refs                 21201474                       # Total number of references to valid blocks.
system.cpu.icache.sampled_refs                    145                       # Sample count of references to valid blocks.
system.cpu.icache.avg_refs               146217.062069                       # Average number of references to valid blocks.
system.cpu.icache.warmup_cycle                      0                       # Cycle when the warmup percentage was hit.
system.cpu.icache.occ_blocks::cpu.inst      97.290457                       # Average occupied blocks per requestor
system.cpu.icache.occ_percent::cpu.inst      0.380041                       # Average percentage of cache occupancy
system.cpu.icache.occ_percent::total         0.380041                       # Average percentage of cache occupancy
system.cpu.icache.ReadReq_hits::cpu.inst     21201474                       # number of ReadReq hits
system.cpu.icache.ReadReq_hits::total        21201474                       # number of ReadReq hits
system.cpu.icache.demand_hits::cpu.inst      21201474                       # number of demand (read+write) hits
system.cpu.icache.demand_hits::total         21201474                       # number of demand (read+write) hits
system.cpu.icache.overall_hits::cpu.inst     21201474                       # number of overall hits
system.cpu.icache.overall_hits::total        21201474                       # number of overall hits
system.cpu.icache.ReadReq_misses::cpu.inst          158                       # number of ReadReq misses
system.cpu.icache.ReadReq_misses::total           158                       # number of ReadReq misses
system.cpu.icache.demand_misses::cpu.inst          158                       # number of demand (read+write) misses
system.cpu.icache.demand_misses::total            158                       # number of demand (read+write) misses
system.cpu.icache.overall_misses::cpu.inst          158                       # number of overall misses
system.cpu.icache.overall_misses::total           158                       # number of overall misses
system.cpu.icache.ReadReq_miss_latency::cpu.inst      5528500                       # number of ReadReq miss cycles
system.cpu.icache.ReadReq_miss_latency::total      5528500                       # number of ReadReq miss cycles
system.cpu.icache.demand_miss_latency::cpu.inst      5528500                       # number of demand (read+write) miss cycles
system.cpu.icache.demand_miss_latency::total      5528500                       # number of demand (read+write) miss cycles
system.cpu.icache.overall_miss_latency::cpu.inst      5528500                       # number of overall miss cycles
system.cpu.icache.overall_miss_latency::total      5528500                       # number of overall miss cycles
system.cpu.icache.ReadReq_accesses::cpu.inst     21201632                       # number of ReadReq accesses(hits+misses)
system.cpu.icache.ReadReq_accesses::total     21201632                       # number of ReadReq accesses(hits+misses)
system.cpu.icache.demand_accesses::cpu.inst     21201632                       # number of demand (read+write) accesses
system.cpu.icache.demand_accesses::total     21201632                       # number of demand (read+write) accesses
system.cpu.icache.overall_accesses::cpu.inst     21201632                       # number of overall (read+write) accesses
system.cpu.icache.overall_accesses::total     21201632                       # number of overall (read+write) accesses
system.cpu.icache.ReadReq_miss_rate::cpu.inst     0.000007                       # miss rate for ReadReq accesses
system.cpu.icache.ReadReq_miss_rate::total     0.000007                       # miss rate for ReadReq accesses
system.cpu.icache.demand_miss_rate::cpu.inst     0.000007                       # miss rate for demand accesses
system.cpu.icache.demand_miss_rate::total     0.000007                       # miss rate for demand accesses
system.cpu.icache.overall_miss_rate::cpu.inst     0.000007                       # miss rate for overall accesses
system.cpu.icache.overall_miss_rate::total     0.000007                       # miss rate for overall accesses
system.cpu.icache.ReadReq_avg_miss_latency::cpu.inst 34990.506329                       # average ReadReq miss latency
system.cpu.icache.ReadReq_avg_miss_latency::total 34990.506329                       # average ReadReq miss latency
system.cpu.icache.demand_avg_miss_latency::cpu.inst 34990.506329                       # average overall miss latency
system.cpu.icache.demand_avg_miss_latency::total 34990.506329                       # average overall miss latency
system.cpu.icache.overall_avg_miss_latency::cpu.inst 34990.506329                       # average overall miss latency
system.cpu.icache.overall_avg_miss_latency::total 34990.506329                       # average overall miss latency
system.cpu.icache.blocked_cycles::no_mshrs            0                       # number of cycles access was blocked
system.cpu.icache.blocked_cycles::no_targets            0                       # number of cycles access was blocked
system.cpu.icache.blocked::no_mshrs                 0                       # number of cycles access was blocked
system.cpu.icache.blocked::no_targets               0                       # number of cycles access was blocked
system.cpu.icache.avg_blocked_cycles::no_mshrs          nan                       # average number of cycles each access was blocked
system.cpu.icache.avg_blocked_cycles::no_targets          nan                       # average number of cycles each access was blocked
system.cpu.icache.fast_writes                       0                       # number of fast writes performed
system.cpu.icache.cache_copies                      0                       # number of cache copies performed
system.cpu.icache.ReadReq_mshr_hits::cpu.inst           13                       # number of ReadReq MSHR hits
system.cpu.icache.ReadReq_mshr_hits::total           13                       # number of ReadReq MSHR hits
system.cpu.icache.demand_mshr_hits::cpu.inst           13                       # number of demand (read+write) MSHR hits
system.cpu.icache.demand_mshr_hits::total           13                       # number of demand (read+write) MSHR hits
system.cpu.icache.overall_mshr_hits::cpu.inst           13                       # number of overall MSHR hits
system.cpu.icache.overall_mshr_hits::total           13                       # number of overall MSHR hits
system.cpu.icache.ReadReq_mshr_misses::cpu.inst          145                       # number of ReadReq MSHR misses
system.cpu.icache.ReadReq_mshr_misses::total          145                       # number of ReadReq MSHR misses
system.cpu.icache.demand_mshr_misses::cpu.inst          145                       # number of demand (read+write) MSHR misses
system.cpu.icache.demand_mshr_misses::total          145                       # number of demand (read+write) MSHR misses
system.cpu.icache.overall_mshr_misses::cpu.inst          145                       # number of overall MSHR misses
system.cpu.icache.overall_mshr_misses::total          145                       # number of overall MSHR misses
system.cpu.icache.ReadReq_mshr_miss_latency::cpu.inst      4755500                       # number of ReadReq MSHR miss cycles
system.cpu.icache.ReadReq_mshr_miss_latency::total      4755500                       # number of ReadReq MSHR miss cycles
system.cpu.icache.demand_mshr_miss_latency::cpu.inst      4755500                       # number of demand (read+write) MSHR miss cycles
system.cpu.icache.demand_mshr_miss_latency::total      4755500                       # number of demand (read+write) MSHR miss cycles
system.cpu.icache.overall_mshr_miss_latency::cpu.inst      4755500                       # number of overall MSHR miss cycles
system.cpu.icache.overall_mshr_miss_latency::total      4755500                       # number of overall MSHR miss cycles
system.cpu.icache.ReadReq_mshr_miss_rate::cpu.inst     0.000007                       # mshr miss rate for ReadReq accesses
system.cpu.icache.ReadReq_mshr_miss_rate::total     0.000007                       # mshr miss rate for ReadReq accesses
system.cpu.icache.demand_mshr_miss_rate::cpu.inst     0.000007                       # mshr miss rate for demand accesses
system.cpu.icache.demand_mshr_miss_rate::total     0.000007                       # mshr miss rate for demand accesses
system.cpu.icache.overall_mshr_miss_rate::cpu.inst     0.000007                       # mshr miss rate for overall accesses
system.cpu.icache.overall_mshr_miss_rate::total     0.000007                       # mshr miss rate for overall accesses
system.cpu.icache.ReadReq_avg_mshr_miss_latency::cpu.inst 32796.551724                       # average ReadReq mshr miss latency
system.cpu.icache.ReadReq_avg_mshr_miss_latency::total 32796.551724                       # average ReadReq mshr miss latency
system.cpu.icache.demand_avg_mshr_miss_latency::cpu.inst 32796.551724                       # average overall mshr miss latency
system.cpu.icache.demand_avg_mshr_miss_latency::total 32796.551724                       # average overall mshr miss latency
system.cpu.icache.overall_avg_mshr_miss_latency::cpu.inst 32796.551724                       # average overall mshr miss latency
system.cpu.icache.overall_avg_mshr_miss_latency::total 32796.551724                       # average overall mshr miss latency
system.cpu.icache.no_allocate_misses                0                       # Number of misses that were no-allocate
system.cpu.dcache.replacements                 787239                       # number of replacements
system.cpu.dcache.tagsinuse                255.955558                       # Cycle average of tags in use
system.cpu.dcache.total_refs                 32773808                       # Total number of references to valid blocks.
system.cpu.dcache.sampled_refs                 787495                       # Sample count of references to valid blocks.
system.cpu.dcache.avg_refs                  41.617798                       # Average number of references to valid blocks.
system.cpu.dcache.warmup_cycle           1068005001500                       # Cycle when the warmup percentage was hit.
system.cpu.dcache.occ_blocks::cpu.data     255.955558                       # Average occupied blocks per requestor
system.cpu.dcache.occ_percent::cpu.data      0.999826                       # Average percentage of cache occupancy
system.cpu.dcache.occ_percent::total         0.999826                       # Average percentage of cache occupancy
system.cpu.dcache.ReadReq_hits::cpu.data     22319510                       # number of ReadReq hits
system.cpu.dcache.ReadReq_hits::total        22319510                       # number of ReadReq hits
system.cpu.dcache.WriteReq_hits::cpu.data     10454298                       # number of WriteReq hits
system.cpu.dcache.WriteReq_hits::total       10454298                       # number of WriteReq hits
system.cpu.dcache.demand_hits::cpu.data      32773808                       # number of demand (read+write) hits
system.cpu.dcache.demand_hits::total         32773808                       # number of demand (read+write) hits
system.cpu.dcache.overall_hits::cpu.data     32773808                       # number of overall hits
system.cpu.dcache.overall_hits::total        32773808                       # number of overall hits
system.cpu.dcache.ReadReq_misses::cpu.data       159093                       # number of ReadReq misses
system.cpu.dcache.ReadReq_misses::total        159093                       # number of ReadReq misses
system.cpu.dcache.WriteReq_misses::cpu.data       645776                       # number of WriteReq misses
system.cpu.dcache.WriteReq_misses::total       645776                       # number of WriteReq misses
system.cpu.dcache.demand_misses::cpu.data       804869                       # number of demand (read+write) misses
system.cpu.dcache.demand_misses::total         804869                       # number of demand (read+write) misses
system.cpu.dcache.overall_misses::cpu.data       804869                       # number of overall misses
system.cpu.dcache.overall_misses::total        804869                       # number of overall misses
system.cpu.dcache.ReadReq_miss_latency::cpu.data   5561462000                       # number of ReadReq miss cycles
system.cpu.dcache.ReadReq_miss_latency::total   5561462000                       # number of ReadReq miss cycles
system.cpu.dcache.WriteReq_miss_latency::cpu.data  22029430000                       # number of WriteReq miss cycles
system.cpu.dcache.WriteReq_miss_latency::total  22029430000                       # number of WriteReq miss cycles
system.cpu.dcache.demand_miss_latency::cpu.data  27590892000                       # number of demand (read+write) miss cycles
system.cpu.dcache.demand_miss_latency::total  27590892000                       # number of demand (read+write) miss cycles
system.cpu.dcache.overall_miss_latency::cpu.data  27590892000                       # number of overall miss cycles
system.cpu.dcache.overall_miss_latency::total  27590892000                       # number of overall miss cycles
system.cpu.dcache.ReadReq_accesses::cpu.data     22478603                       # number of ReadReq accesses(hits+misses)
system.cpu.dcache.ReadReq_accesses::total     22478603                       # number of ReadReq accesses(hits+misses)
system.cpu.dcache.WriteReq_accesses::cpu.data     11100074                       # number of WriteReq accesses(hits+misses)
system.cpu.dcache.WriteReq_accesses::total     11100074                       # number of WriteReq accesses(hits+misses)
system.cpu.dcache.demand_accesses::cpu.data     33578677                       # number of demand (read+write) accesses
system.cpu.dcache.demand_accesses::total     33578677                       # number of demand (read+write) accesses
system.cpu.dcache.overall_accesses::cpu.data     33578677                       # number of overall (read+write) accesses
system.cpu.dcache.overall_accesses::total     33578677                       # number of overall (read+write) accesses
system.cpu.dcache.ReadReq_miss_rate::cpu.data     0.007078                       # miss rate for ReadReq accesses
system.cpu.dcache.ReadReq_miss_rate::total     0.007078                       # miss rate for ReadReq accesses
system.cpu.dcache.WriteReq_miss_rate::cpu.data     0.058178                       # miss rate for WriteReq accesses
system.cpu.dcache.WriteReq_miss_rate::total     0.058178                       # miss rate for WriteReq accesses
system.cpu.dcache.demand_miss_rate::cpu.data     0.023970                       # miss rate for demand accesses
system.cpu.dcache.demand_miss_rate::total     0.023970                       # miss rate for demand accesses
system.cpu.dcache.overall_miss_rate::cpu.data     0.023970                       # miss rate for overall accesses
system.cpu.dcache.overall_miss_rate::total     0.023970                       # miss rate for overall accesses
system.cpu.dcache.ReadReq_avg_miss_latency::cpu.data 34957.301704                       # average ReadReq miss latency
system.cpu.dcache.ReadReq_avg_miss_latency::total 34957.301704                       # average ReadReq miss latency
system.cpu.dcache.WriteReq_avg_miss_latency::cpu.data 34113.113525                       # average WriteReq miss latency
system.cpu.dcache.WriteReq_avg_miss_latency::total 34113.113525                       # average WriteReq miss latency
system.cpu.dcache.demand_avg_miss_latency::cpu.data 34279.978481                       # average overall miss latency
system.cpu.dcache.demand_avg_miss_latency::total 34279.978481                       # average overall miss latency
system.cpu.dcache.overall_avg_miss_latency::cpu.data 34279.978481                       # average overall miss latency
system.cpu.dcache.overall_avg_miss_latency::total 34279.978481                       # average overall miss latency
system.cpu.dcache.blocked_cycles::no_mshrs            0                       # number of cycles access was blocked
system.cpu.dcache.blocked_cycles::no_targets            0                       # number of cycles access was blocked
system.cpu.dcache.blocked::no_mshrs                 0                       # number of cycles access was blocked
system.cpu.dcache.blocked::no_targets               0                       # number of cycles access was blocked
system.cpu.dcache.avg_blocked_cycles::no_mshrs          nan                       # average number of cycles each access was blocked
system.cpu.dcache.avg_blocked_cycles::no_targets          nan                       # average number of cycles each access was blocked
system.cpu.dcache.fast_writes                       0                       # number of fast writes performed
system.cpu.dcache.cache_copies                      0                       # number of cache copies performed
system.cpu.dcache.writebacks::writebacks       687642                       # number of writebacks
system.cpu.dcache.writebacks::total            687642                       # number of writebacks
system.cpu.dcache.ReadReq_mshr_hits::cpu.data        17374                       # number of ReadReq MSHR hits
system.cpu.dcache.ReadReq_mshr_hits::total        17374                       # number of ReadReq MSHR hits
system.cpu.dcache.demand_mshr_hits::cpu.data        17374                       # number of demand (read+write) MSHR hits
system.cpu.dcache.demand_mshr_hits::total        17374                       # number of demand (read+write) MSHR hits
system.cpu.dcache.overall_mshr_hits::cpu.data        17374                       # number of overall MSHR hits
system.cpu.dcache.overall_mshr_hits::total        17374                       # number of overall MSHR hits
system.cpu.dcache.ReadReq_mshr_misses::cpu.data       141719                       # number of ReadReq MSHR misses
system.cpu.dcache.ReadReq_mshr_misses::total       141719                       # number of ReadReq MSHR misses
system.cpu.dcache.WriteReq_mshr_misses::cpu.data       645776                       # number of WriteReq MSHR misses
system.cpu.dcache.WriteReq_mshr_misses::total       645776                       # number of WriteReq MSHR misses
system.cpu.dcache.demand_mshr_misses::cpu.data       787495                       # number of demand (read+write) MSHR misses
system.cpu.dcache.demand_mshr_misses::total       787495                       # number of demand (read+write) MSHR misses
system.cpu.dcache.overall_mshr_misses::cpu.data       787495                       # number of overall MSHR misses
system.cpu.dcache.overall_mshr_misses::total       787495                       # number of overall MSHR misses
system.cpu.dcache.ReadReq_mshr_miss_latency::cpu.data   4421404500                       # number of ReadReq MSHR miss cycles
system.cpu.dcache.ReadReq_mshr_miss_latency::total   4421404500                       # number of ReadReq MSHR miss cycles
system.cpu.dcache.WriteReq_mshr_miss_latency::cpu.data  20020698000                       # number of WriteReq MSHR miss cycles
system.cpu.dcache.WriteReq_mshr_miss_latency::total  20020698000                       # number of WriteReq MSHR miss cycles
system.cpu.dcache.demand_mshr_miss_latency::cpu.data  24442102500                       # number of demand (read+write) MSHR miss cycles
system.cpu.dcache.demand_mshr_miss_latency::total  24442102500                       # number of demand (read+write) MSHR miss cycles
system.cpu.dcache.overall_mshr_miss_latency::cpu.data  24442102500                       # number of overall MSHR miss cycles
system.cpu.dcache.overall_mshr_miss_latency::total  24442102500                       # number of overall MSHR miss cycles
system.cpu.dcache.ReadReq_mshr_miss_rate::cpu.data     0.006305                       # mshr miss rate for ReadReq accesses
system.cpu.dcache.ReadReq_mshr_miss_rate::total     0.006305                       # mshr miss rate for ReadReq accesses
system.cpu.dcache.WriteReq_mshr_miss_rate::cpu.data     0.058178                       # mshr miss rate for WriteReq accesses
system.cpu.dcache.WriteReq_mshr_miss_rate::total     0.058178                       # mshr miss rate for WriteReq accesses
system.cpu.dcache.demand_mshr_miss_rate::cpu.data     0.023452                       # mshr miss rate for demand accesses
system.cpu.dcache.demand_mshr_miss_rate::total     0.023452                       # mshr miss rate for demand accesses
system.cpu.dcache.overall_mshr_miss_rate::cpu.data     0.023452                       # mshr miss rate for overall accesses
system.cpu.dcache.overall_mshr_miss_rate::total     0.023452                       # mshr miss rate for overall accesses
system.cpu.dcache.ReadReq_avg_mshr_miss_latency::cpu.data 31198.389066                       # average ReadReq mshr miss latency
system.cpu.dcache.ReadReq_avg_mshr_miss_latency::total 31198.389066                       # average ReadReq mshr miss latency
system.cpu.dcache.WriteReq_avg_mshr_miss_latency::cpu.data 31002.542677                       # average WriteReq mshr miss latency
system.cpu.dcache.WriteReq_avg_mshr_miss_latency::total 31002.542677                       # average WriteReq mshr miss latency
system.cpu.dcache.demand_avg_mshr_miss_latency::cpu.data 31037.787542                       # average overall mshr miss latency
system.cpu.dcache.demand_avg_mshr_miss_latency::total 31037.787542                       # average overall mshr miss latency
system.cpu.dcache.overall_avg_mshr_miss_latency::cpu.data 31037.787542                       # average overall mshr miss latency
system.cpu.dcache.overall_avg_mshr_miss_latency::total 31037.787542                       # average overall mshr miss latency
system.cpu.dcache.no_allocate_misses                0                       # Number of misses that were no-allocate

---------- End Simulation Statistics   ----------
