
---------- Begin Simulation Statistics ----------
sim_seconds                                  0.201004                       # Number of seconds simulated
sim_ticks                                201004064000                       # Number of ticks simulated
final_tick                               628204504000                       # Number of ticks from beginning of simulation (restored from checkpoints and never reset)
sim_freq                                 1000000000000                       # Frequency of simulated ticks
host_inst_rate                                  37626                       # Simulator instruction rate (inst/s)
host_op_rate                                    63075                       # Simulator op (including micro ops) rate (op/s)
host_tick_rate                               75629240                       # Simulator tick rate (ticks/s)
host_mem_usage                                2209004                       # Number of bytes of host memory used
host_seconds                                  2657.76                       # Real time elapsed on the host
sim_insts                                   100000000                       # Number of instructions simulated
sim_ops                                     167636858                       # Number of ops (including micro ops) simulated
system.physmem.bytes_read::cpu.inst             28928                       # Number of bytes read from this memory
system.physmem.bytes_read::cpu.data             80960                       # Number of bytes read from this memory
system.physmem.bytes_read::total               109888                       # Number of bytes read from this memory
system.physmem.bytes_inst_read::cpu.inst        28928                       # Number of instructions bytes read from this memory
system.physmem.bytes_inst_read::total           28928                       # Number of instructions bytes read from this memory
system.physmem.num_reads::cpu.inst                452                       # Number of read requests responded to by this memory
system.physmem.num_reads::cpu.data               1265                       # Number of read requests responded to by this memory
system.physmem.num_reads::total                  1717                       # Number of read requests responded to by this memory
system.physmem.bw_read::cpu.inst               143917                       # Total read bandwidth from this memory (bytes/s)
system.physmem.bw_read::cpu.data               402778                       # Total read bandwidth from this memory (bytes/s)
system.physmem.bw_read::total                  546695                       # Total read bandwidth from this memory (bytes/s)
system.physmem.bw_inst_read::cpu.inst          143917                       # Instruction read bandwidth from this memory (bytes/s)
system.physmem.bw_inst_read::total             143917                       # Instruction read bandwidth from this memory (bytes/s)
system.physmem.bw_total::cpu.inst              143917                       # Total bandwidth to/from this memory (bytes/s)
system.physmem.bw_total::cpu.data              402778                       # Total bandwidth to/from this memory (bytes/s)
system.physmem.bw_total::total                 546695                       # Total bandwidth to/from this memory (bytes/s)
system.l2.replacements                              0                       # number of replacements
system.l2.tagsinuse                       1254.566666                       # Cycle average of tags in use
system.l2.total_refs                           350477                       # Total number of references to valid blocks.
system.l2.sampled_refs                           1400                       # Sample count of references to valid blocks.
system.l2.avg_refs                         250.340714                       # Average number of references to valid blocks.
system.l2.warmup_cycle                              0                       # Cycle when the warmup percentage was hit.
system.l2.occ_blocks::writebacks           362.344406                       # Average occupied blocks per requestor
system.l2.occ_blocks::cpu.inst             397.266354                       # Average occupied blocks per requestor
system.l2.occ_blocks::cpu.data             494.955906                       # Average occupied blocks per requestor
system.l2.occ_percent::writebacks            0.088463                       # Average percentage of cache occupancy
system.l2.occ_percent::cpu.inst              0.096989                       # Average percentage of cache occupancy
system.l2.occ_percent::cpu.data              0.120839                       # Average percentage of cache occupancy
system.l2.occ_percent::total                 0.306291                       # Average percentage of cache occupancy
system.l2.ReadReq_hits::cpu.inst                 7163                       # number of ReadReq hits
system.l2.ReadReq_hits::cpu.data               216730                       # number of ReadReq hits
system.l2.ReadReq_hits::total                  223893                       # number of ReadReq hits
system.l2.Writeback_hits::writebacks           230570                       # number of Writeback hits
system.l2.Writeback_hits::total                230570                       # number of Writeback hits
system.l2.ReadExReq_hits::cpu.data             186633                       # number of ReadExReq hits
system.l2.ReadExReq_hits::total                186633                       # number of ReadExReq hits
system.l2.demand_hits::cpu.inst                  7163                       # number of demand (read+write) hits
system.l2.demand_hits::cpu.data                403363                       # number of demand (read+write) hits
system.l2.demand_hits::total                   410526                       # number of demand (read+write) hits
system.l2.overall_hits::cpu.inst                 7163                       # number of overall hits
system.l2.overall_hits::cpu.data               403363                       # number of overall hits
system.l2.overall_hits::total                  410526                       # number of overall hits
system.l2.ReadReq_misses::cpu.inst                452                       # number of ReadReq misses
system.l2.ReadReq_misses::cpu.data                604                       # number of ReadReq misses
system.l2.ReadReq_misses::total                  1056                       # number of ReadReq misses
system.l2.ReadExReq_misses::cpu.data              661                       # number of ReadExReq misses
system.l2.ReadExReq_misses::total                 661                       # number of ReadExReq misses
system.l2.demand_misses::cpu.inst                 452                       # number of demand (read+write) misses
system.l2.demand_misses::cpu.data                1265                       # number of demand (read+write) misses
system.l2.demand_misses::total                   1717                       # number of demand (read+write) misses
system.l2.overall_misses::cpu.inst                452                       # number of overall misses
system.l2.overall_misses::cpu.data               1265                       # number of overall misses
system.l2.overall_misses::total                  1717                       # number of overall misses
system.l2.ReadReq_miss_latency::cpu.inst     23889500                       # number of ReadReq miss cycles
system.l2.ReadReq_miss_latency::cpu.data     31893500                       # number of ReadReq miss cycles
system.l2.ReadReq_miss_latency::total        55783000                       # number of ReadReq miss cycles
system.l2.ReadExReq_miss_latency::cpu.data     34542500                       # number of ReadExReq miss cycles
system.l2.ReadExReq_miss_latency::total      34542500                       # number of ReadExReq miss cycles
system.l2.demand_miss_latency::cpu.inst      23889500                       # number of demand (read+write) miss cycles
system.l2.demand_miss_latency::cpu.data      66436000                       # number of demand (read+write) miss cycles
system.l2.demand_miss_latency::total         90325500                       # number of demand (read+write) miss cycles
system.l2.overall_miss_latency::cpu.inst     23889500                       # number of overall miss cycles
system.l2.overall_miss_latency::cpu.data     66436000                       # number of overall miss cycles
system.l2.overall_miss_latency::total        90325500                       # number of overall miss cycles
system.l2.ReadReq_accesses::cpu.inst             7615                       # number of ReadReq accesses(hits+misses)
system.l2.ReadReq_accesses::cpu.data           217334                       # number of ReadReq accesses(hits+misses)
system.l2.ReadReq_accesses::total              224949                       # number of ReadReq accesses(hits+misses)
system.l2.Writeback_accesses::writebacks       230570                       # number of Writeback accesses(hits+misses)
system.l2.Writeback_accesses::total            230570                       # number of Writeback accesses(hits+misses)
system.l2.ReadExReq_accesses::cpu.data         187294                       # number of ReadExReq accesses(hits+misses)
system.l2.ReadExReq_accesses::total            187294                       # number of ReadExReq accesses(hits+misses)
system.l2.demand_accesses::cpu.inst              7615                       # number of demand (read+write) accesses
system.l2.demand_accesses::cpu.data            404628                       # number of demand (read+write) accesses
system.l2.demand_accesses::total               412243                       # number of demand (read+write) accesses
system.l2.overall_accesses::cpu.inst             7615                       # number of overall (read+write) accesses
system.l2.overall_accesses::cpu.data           404628                       # number of overall (read+write) accesses
system.l2.overall_accesses::total              412243                       # number of overall (read+write) accesses
system.l2.ReadReq_miss_rate::cpu.inst        0.059357                       # miss rate for ReadReq accesses
system.l2.ReadReq_miss_rate::cpu.data        0.002779                       # miss rate for ReadReq accesses
system.l2.ReadReq_miss_rate::total           0.004694                       # miss rate for ReadReq accesses
system.l2.ReadExReq_miss_rate::cpu.data      0.003529                       # miss rate for ReadExReq accesses
system.l2.ReadExReq_miss_rate::total         0.003529                       # miss rate for ReadExReq accesses
system.l2.demand_miss_rate::cpu.inst         0.059357                       # miss rate for demand accesses
system.l2.demand_miss_rate::cpu.data         0.003126                       # miss rate for demand accesses
system.l2.demand_miss_rate::total            0.004165                       # miss rate for demand accesses
system.l2.overall_miss_rate::cpu.inst        0.059357                       # miss rate for overall accesses
system.l2.overall_miss_rate::cpu.data        0.003126                       # miss rate for overall accesses
system.l2.overall_miss_rate::total           0.004165                       # miss rate for overall accesses
system.l2.ReadReq_avg_miss_latency::cpu.inst 52852.876106                       # average ReadReq miss latency
system.l2.ReadReq_avg_miss_latency::cpu.data 52803.807947                       # average ReadReq miss latency
system.l2.ReadReq_avg_miss_latency::total 52824.810606                       # average ReadReq miss latency
system.l2.ReadExReq_avg_miss_latency::cpu.data 52257.942511                       # average ReadExReq miss latency
system.l2.ReadExReq_avg_miss_latency::total 52257.942511                       # average ReadExReq miss latency
system.l2.demand_avg_miss_latency::cpu.inst 52852.876106                       # average overall miss latency
system.l2.demand_avg_miss_latency::cpu.data 52518.577075                       # average overall miss latency
system.l2.demand_avg_miss_latency::total 52606.581246                       # average overall miss latency
system.l2.overall_avg_miss_latency::cpu.inst 52852.876106                       # average overall miss latency
system.l2.overall_avg_miss_latency::cpu.data 52518.577075                       # average overall miss latency
system.l2.overall_avg_miss_latency::total 52606.581246                       # average overall miss latency
system.l2.blocked_cycles::no_mshrs                  0                       # number of cycles access was blocked
system.l2.blocked_cycles::no_targets                0                       # number of cycles access was blocked
system.l2.blocked::no_mshrs                         0                       # number of cycles access was blocked
system.l2.blocked::no_targets                       0                       # number of cycles access was blocked
system.l2.avg_blocked_cycles::no_mshrs            nan                       # average number of cycles each access was blocked
system.l2.avg_blocked_cycles::no_targets          nan                       # average number of cycles each access was blocked
system.l2.fast_writes                               0                       # number of fast writes performed
system.l2.cache_copies                              0                       # number of cache copies performed
system.l2.ReadReq_mshr_misses::cpu.inst           452                       # number of ReadReq MSHR misses
system.l2.ReadReq_mshr_misses::cpu.data           604                       # number of ReadReq MSHR misses
system.l2.ReadReq_mshr_misses::total             1056                       # number of ReadReq MSHR misses
system.l2.ReadExReq_mshr_misses::cpu.data          661                       # number of ReadExReq MSHR misses
system.l2.ReadExReq_mshr_misses::total            661                       # number of ReadExReq MSHR misses
system.l2.demand_mshr_misses::cpu.inst            452                       # number of demand (read+write) MSHR misses
system.l2.demand_mshr_misses::cpu.data           1265                       # number of demand (read+write) MSHR misses
system.l2.demand_mshr_misses::total              1717                       # number of demand (read+write) MSHR misses
system.l2.overall_mshr_misses::cpu.inst           452                       # number of overall MSHR misses
system.l2.overall_mshr_misses::cpu.data          1265                       # number of overall MSHR misses
system.l2.overall_mshr_misses::total             1717                       # number of overall MSHR misses
system.l2.ReadReq_mshr_miss_latency::cpu.inst     18366500                       # number of ReadReq MSHR miss cycles
system.l2.ReadReq_mshr_miss_latency::cpu.data     24482000                       # number of ReadReq MSHR miss cycles
system.l2.ReadReq_mshr_miss_latency::total     42848500                       # number of ReadReq MSHR miss cycles
system.l2.ReadExReq_mshr_miss_latency::cpu.data     26514500                       # number of ReadExReq MSHR miss cycles
system.l2.ReadExReq_mshr_miss_latency::total     26514500                       # number of ReadExReq MSHR miss cycles
system.l2.demand_mshr_miss_latency::cpu.inst     18366500                       # number of demand (read+write) MSHR miss cycles
system.l2.demand_mshr_miss_latency::cpu.data     50996500                       # number of demand (read+write) MSHR miss cycles
system.l2.demand_mshr_miss_latency::total     69363000                       # number of demand (read+write) MSHR miss cycles
system.l2.overall_mshr_miss_latency::cpu.inst     18366500                       # number of overall MSHR miss cycles
system.l2.overall_mshr_miss_latency::cpu.data     50996500                       # number of overall MSHR miss cycles
system.l2.overall_mshr_miss_latency::total     69363000                       # number of overall MSHR miss cycles
system.l2.ReadReq_mshr_miss_rate::cpu.inst     0.059357                       # mshr miss rate for ReadReq accesses
system.l2.ReadReq_mshr_miss_rate::cpu.data     0.002779                       # mshr miss rate for ReadReq accesses
system.l2.ReadReq_mshr_miss_rate::total      0.004694                       # mshr miss rate for ReadReq accesses
system.l2.ReadExReq_mshr_miss_rate::cpu.data     0.003529                       # mshr miss rate for ReadExReq accesses
system.l2.ReadExReq_mshr_miss_rate::total     0.003529                       # mshr miss rate for ReadExReq accesses
system.l2.demand_mshr_miss_rate::cpu.inst     0.059357                       # mshr miss rate for demand accesses
system.l2.demand_mshr_miss_rate::cpu.data     0.003126                       # mshr miss rate for demand accesses
system.l2.demand_mshr_miss_rate::total       0.004165                       # mshr miss rate for demand accesses
system.l2.overall_mshr_miss_rate::cpu.inst     0.059357                       # mshr miss rate for overall accesses
system.l2.overall_mshr_miss_rate::cpu.data     0.003126                       # mshr miss rate for overall accesses
system.l2.overall_mshr_miss_rate::total      0.004165                       # mshr miss rate for overall accesses
system.l2.ReadReq_avg_mshr_miss_latency::cpu.inst 40633.849558                       # average ReadReq mshr miss latency
system.l2.ReadReq_avg_mshr_miss_latency::cpu.data 40533.112583                       # average ReadReq mshr miss latency
system.l2.ReadReq_avg_mshr_miss_latency::total 40576.231061                       # average ReadReq mshr miss latency
system.l2.ReadExReq_avg_mshr_miss_latency::cpu.data 40112.708018                       # average ReadExReq mshr miss latency
system.l2.ReadExReq_avg_mshr_miss_latency::total 40112.708018                       # average ReadExReq mshr miss latency
system.l2.demand_avg_mshr_miss_latency::cpu.inst 40633.849558                       # average overall mshr miss latency
system.l2.demand_avg_mshr_miss_latency::cpu.data 40313.438735                       # average overall mshr miss latency
system.l2.demand_avg_mshr_miss_latency::total 40397.786838                       # average overall mshr miss latency
system.l2.overall_avg_mshr_miss_latency::cpu.inst 40633.849558                       # average overall mshr miss latency
system.l2.overall_avg_mshr_miss_latency::cpu.data 40313.438735                       # average overall mshr miss latency
system.l2.overall_avg_mshr_miss_latency::total 40397.786838                       # average overall mshr miss latency
system.l2.no_allocate_misses                        0                       # Number of misses that were no-allocate
system.cpu.branchPred.lookups                12689030                       # Number of BP lookups
system.cpu.branchPred.condPredicted          12689030                       # Number of conditional branches predicted
system.cpu.branchPred.condIncorrect           1092648                       # Number of conditional branches incorrect
system.cpu.branchPred.BTBLookups              7343612                       # Number of BTB lookups
system.cpu.branchPred.BTBHits                 6816370                       # Number of BTB hits
system.cpu.branchPred.BTBCorrect                    0                       # Number of correct BTB predictions (this stat may not work properly.
system.cpu.branchPred.BTBHitPct             92.820400                       # BTB Hit Percentage
system.cpu.branchPred.usedRAS                       0                       # Number of times the RAS was used to get a target.
system.cpu.branchPred.RASInCorrect                  0                       # Number of incorrect RAS predictions.
system.cpu.workload.num_syscalls                    0                       # Number of system calls
system.cpu.numCycles                        402008128                       # number of cpu cycles simulated
system.cpu.numWorkItemsStarted                      0                       # number of work items this cpu started
system.cpu.numWorkItemsCompleted                    0                       # number of work items this cpu completed
system.cpu.fetch.icacheStallCycles           15303176                       # Number of cycles fetch is stalled on an Icache miss
system.cpu.fetch.Insts                      102455917                       # Number of instructions fetch has processed
system.cpu.fetch.Branches                    12689030                       # Number of branches that fetch encountered
system.cpu.fetch.predictedBranches            6816370                       # Number of branches that fetch has predicted taken
system.cpu.fetch.Cycles                      92693839                       # Number of cycles fetch has run and was not squashing or blocked
system.cpu.fetch.SquashCycles                 2185296                       # Number of cycles fetch has spent squashing
system.cpu.fetch.BlockedCycles              291515405                       # Number of cycles fetch has spent blocked
system.cpu.fetch.CacheLines                  14471381                       # Number of cache lines fetched
system.cpu.fetch.IcacheSquashes                  6027                       # Number of outstanding Icache misses that were squashed
system.cpu.fetch.rateDist::samples          400605068                       # Number of instructions fetched each cycle (Total)
system.cpu.fetch.rateDist::mean              0.427000                       # Number of instructions fetched each cycle (Total)
system.cpu.fetch.rateDist::stdev             0.805828                       # Number of instructions fetched each cycle (Total)
system.cpu.fetch.rateDist::underflows               0      0.00%      0.00% # Number of instructions fetched each cycle (Total)
system.cpu.fetch.rateDist::0                310606762     77.53%     77.53% # Number of instructions fetched each cycle (Total)
system.cpu.fetch.rateDist::1                  8938408      2.23%     79.77% # Number of instructions fetched each cycle (Total)
system.cpu.fetch.rateDist::2                 81059898     20.23%    100.00% # Number of instructions fetched each cycle (Total)
system.cpu.fetch.rateDist::overflows                0      0.00%    100.00% # Number of instructions fetched each cycle (Total)
system.cpu.fetch.rateDist::min_value                0                       # Number of instructions fetched each cycle (Total)
system.cpu.fetch.rateDist::max_value                2                       # Number of instructions fetched each cycle (Total)
system.cpu.fetch.rateDist::total            400605068                       # Number of instructions fetched each cycle (Total)
system.cpu.fetch.branchRate                  0.031564                       # Number of branch fetches per cycle
system.cpu.fetch.rate                        0.254860                       # Number of inst fetches per cycle
system.cpu.decode.IdleCycles                 78829237                       # Number of cycles decode is idle
system.cpu.decode.BlockedCycles             231082754                       # Number of cycles decode is blocked
system.cpu.decode.RunCycles                  65931509                       # Number of cycles decode is running
system.cpu.decode.UnblockCycles              23668918                       # Number of cycles decode is unblocking
system.cpu.decode.SquashCycles                1092648                       # Number of cycles decode is squashing
system.cpu.decode.DecodedInsts              170265489                       # Number of instructions handled by decode
system.cpu.rename.SquashCycles                1092648                       # Number of cycles rename is squashing
system.cpu.rename.IdleCycles                 99929656                       # Number of cycles rename is idle
system.cpu.rename.BlockCycles               181956908                       # Number of cycles rename is blocking
system.cpu.rename.serializeStallCycles              0                       # count of cycles rename stalled for serializing inst
system.cpu.rename.RunCycles                  37072835                       # Number of cycles rename is running
system.cpu.rename.UnblockCycles              80553020                       # Number of cycles rename is unblocking
system.cpu.rename.RenamedInsts              169165178                       # Number of instructions processed by rename
system.cpu.rename.IQFullEvents               45154915                       # Number of times rename has blocked due to IQ full
system.cpu.rename.LSQFullEvents                   441                       # Number of times rename has blocked due to LSQ full
system.cpu.rename.RenamedOperands           201598965                       # Number of destination operands rename has renamed
system.cpu.rename.RenameLookups             414361725                       # Number of register rename lookups that rename has made
system.cpu.rename.int_rename_lookups        255356530                       # Number of integer rename lookups
system.cpu.rename.fp_rename_lookups         159005195                       # Number of floating rename lookups
system.cpu.rename.CommittedMaps             199815754                       # Number of HB maps that are committed
system.cpu.rename.UndoneMaps                  1783205                       # Number of HB maps that are undone due to squashing
system.cpu.rename.serializingInsts                  0                       # count of serializing insts renamed
system.cpu.rename.tempSerializingInsts              0                       # count of temporary serializing insts renamed
system.cpu.rename.skidInsts                 112087019                       # count of insts added to the skid buffer
system.cpu.memDep0.insertedLoads             28422704                       # Number of loads inserted to the mem dependence unit.
system.cpu.memDep0.insertedStores             7233369                       # Number of stores inserted to the mem dependence unit.
system.cpu.memDep0.conflictingLoads              5862                       # Number of conflicting loads.
system.cpu.memDep0.conflictingStores             1177                       # Number of conflicting stores.
system.cpu.iq.iqInstsAdded                  167841283                       # Number of instructions added to the IQ (excludes non-spec)
system.cpu.iq.iqNonSpecInstsAdded               12409                       # Number of non-speculative instructions added to the IQ
system.cpu.iq.iqInstsIssued                 167850077                       # Number of instructions issued
system.cpu.iq.iqSquashedInstsIssued              1495                       # Number of squashed instructions issued
system.cpu.iq.iqSquashedInstsExamined           36224                       # Number of squashed instructions iterated over during squash; mainly for profiling
system.cpu.iq.iqSquashedOperandsExamined        93899                       # Number of squashed operands that are examined and possibly removed from graph
system.cpu.iq.iqSquashedNonSpecRemoved            689                       # Number of squashed non-spec instructions that were removed
system.cpu.iq.issued_per_cycle::samples     400605068                       # Number of insts issued each cycle
system.cpu.iq.issued_per_cycle::mean         0.418991                       # Number of insts issued each cycle
system.cpu.iq.issued_per_cycle::stdev        0.568442                       # Number of insts issued each cycle
system.cpu.iq.issued_per_cycle::underflows            0      0.00%      0.00% # Number of insts issued each cycle
system.cpu.iq.issued_per_cycle::0           248716733     62.09%     62.09% # Number of insts issued each cycle
system.cpu.iq.issued_per_cycle::1           135926593     33.93%     96.02% # Number of insts issued each cycle
system.cpu.iq.issued_per_cycle::2            15961742      3.98%    100.00% # Number of insts issued each cycle
system.cpu.iq.issued_per_cycle::overflows            0      0.00%    100.00% # Number of insts issued each cycle
system.cpu.iq.issued_per_cycle::min_value            0                       # Number of insts issued each cycle
system.cpu.iq.issued_per_cycle::max_value            2                       # Number of insts issued each cycle
system.cpu.iq.issued_per_cycle::total       400605068                       # Number of insts issued each cycle
system.cpu.iq.fu_full::No_OpClass                   0      0.00%      0.00% # attempts to use FU when none available
system.cpu.iq.fu_full::IntAlu                12098666     86.78%     86.78% # attempts to use FU when none available
system.cpu.iq.fu_full::IntMult                      0      0.00%     86.78% # attempts to use FU when none available
system.cpu.iq.fu_full::IntDiv                       0      0.00%     86.78% # attempts to use FU when none available
system.cpu.iq.fu_full::FloatAdd               1842527     13.22%    100.00% # attempts to use FU when none available
system.cpu.iq.fu_full::FloatCmp                     0      0.00%    100.00% # attempts to use FU when none available
system.cpu.iq.fu_full::FloatCvt                     0      0.00%    100.00% # attempts to use FU when none available
system.cpu.iq.fu_full::FloatMult                    0      0.00%    100.00% # attempts to use FU when none available
system.cpu.iq.fu_full::FloatDiv                     0      0.00%    100.00% # attempts to use FU when none available
system.cpu.iq.fu_full::FloatSqrt                    0      0.00%    100.00% # attempts to use FU when none available
system.cpu.iq.fu_full::SimdAdd                      0      0.00%    100.00% # attempts to use FU when none available
system.cpu.iq.fu_full::SimdAddAcc                   0      0.00%    100.00% # attempts to use FU when none available
system.cpu.iq.fu_full::SimdAlu                      0      0.00%    100.00% # attempts to use FU when none available
system.cpu.iq.fu_full::SimdCmp                      0      0.00%    100.00% # attempts to use FU when none available
system.cpu.iq.fu_full::SimdCvt                      0      0.00%    100.00% # attempts to use FU when none available
system.cpu.iq.fu_full::SimdMisc                     0      0.00%    100.00% # attempts to use FU when none available
system.cpu.iq.fu_full::SimdMult                     0      0.00%    100.00% # attempts to use FU when none available
system.cpu.iq.fu_full::SimdMultAcc                  0      0.00%    100.00% # attempts to use FU when none available
system.cpu.iq.fu_full::SimdShift                    0      0.00%    100.00% # attempts to use FU when none available
system.cpu.iq.fu_full::SimdShiftAcc                 0      0.00%    100.00% # attempts to use FU when none available
system.cpu.iq.fu_full::SimdSqrt                     0      0.00%    100.00% # attempts to use FU when none available
system.cpu.iq.fu_full::SimdFloatAdd                 0      0.00%    100.00% # attempts to use FU when none available
system.cpu.iq.fu_full::SimdFloatAlu                 0      0.00%    100.00% # attempts to use FU when none available
system.cpu.iq.fu_full::SimdFloatCmp                 0      0.00%    100.00% # attempts to use FU when none available
system.cpu.iq.fu_full::SimdFloatCvt                 0      0.00%    100.00% # attempts to use FU when none available
system.cpu.iq.fu_full::SimdFloatDiv                 0      0.00%    100.00% # attempts to use FU when none available
system.cpu.iq.fu_full::SimdFloatMisc                0      0.00%    100.00% # attempts to use FU when none available
system.cpu.iq.fu_full::SimdFloatMult                0      0.00%    100.00% # attempts to use FU when none available
system.cpu.iq.fu_full::SimdFloatMultAcc             0      0.00%    100.00% # attempts to use FU when none available
system.cpu.iq.fu_full::SimdFloatSqrt                0      0.00%    100.00% # attempts to use FU when none available
system.cpu.iq.fu_full::MemRead                      0      0.00%    100.00% # attempts to use FU when none available
system.cpu.iq.fu_full::MemWrite                     0      0.00%    100.00% # attempts to use FU when none available
system.cpu.iq.fu_full::IprAccess                    0      0.00%    100.00% # attempts to use FU when none available
system.cpu.iq.fu_full::InstPrefetch                 0      0.00%    100.00% # attempts to use FU when none available
system.cpu.iq.FU_type_0::No_OpClass            143695      0.09%      0.09% # Type of FU issued
system.cpu.iq.FU_type_0::IntAlu              97171493     57.89%     57.98% # Type of FU issued
system.cpu.iq.FU_type_0::IntMult                    0      0.00%     57.98% # Type of FU issued
system.cpu.iq.FU_type_0::IntDiv                     0      0.00%     57.98% # Type of FU issued
system.cpu.iq.FU_type_0::FloatAdd            34878870     20.78%     78.76% # Type of FU issued
system.cpu.iq.FU_type_0::FloatCmp                   0      0.00%     78.76% # Type of FU issued
system.cpu.iq.FU_type_0::FloatCvt                   0      0.00%     78.76% # Type of FU issued
system.cpu.iq.FU_type_0::FloatMult                  0      0.00%     78.76% # Type of FU issued
system.cpu.iq.FU_type_0::FloatDiv                   0      0.00%     78.76% # Type of FU issued
system.cpu.iq.FU_type_0::FloatSqrt                  0      0.00%     78.76% # Type of FU issued
system.cpu.iq.FU_type_0::SimdAdd                    0      0.00%     78.76% # Type of FU issued
system.cpu.iq.FU_type_0::SimdAddAcc                 0      0.00%     78.76% # Type of FU issued
system.cpu.iq.FU_type_0::SimdAlu                    0      0.00%     78.76% # Type of FU issued
system.cpu.iq.FU_type_0::SimdCmp                    0      0.00%     78.76% # Type of FU issued
system.cpu.iq.FU_type_0::SimdCvt                    0      0.00%     78.76% # Type of FU issued
system.cpu.iq.FU_type_0::SimdMisc                   0      0.00%     78.76% # Type of FU issued
system.cpu.iq.FU_type_0::SimdMult                   0      0.00%     78.76% # Type of FU issued
system.cpu.iq.FU_type_0::SimdMultAcc                0      0.00%     78.76% # Type of FU issued
system.cpu.iq.FU_type_0::SimdShift                  0      0.00%     78.76% # Type of FU issued
system.cpu.iq.FU_type_0::SimdShiftAcc               0      0.00%     78.76% # Type of FU issued
system.cpu.iq.FU_type_0::SimdSqrt                   0      0.00%     78.76% # Type of FU issued
system.cpu.iq.FU_type_0::SimdFloatAdd               0      0.00%     78.76% # Type of FU issued
system.cpu.iq.FU_type_0::SimdFloatAlu               0      0.00%     78.76% # Type of FU issued
system.cpu.iq.FU_type_0::SimdFloatCmp               0      0.00%     78.76% # Type of FU issued
system.cpu.iq.FU_type_0::SimdFloatCvt               0      0.00%     78.76% # Type of FU issued
system.cpu.iq.FU_type_0::SimdFloatDiv               0      0.00%     78.76% # Type of FU issued
system.cpu.iq.FU_type_0::SimdFloatMisc              0      0.00%     78.76% # Type of FU issued
system.cpu.iq.FU_type_0::SimdFloatMult              0      0.00%     78.76% # Type of FU issued
system.cpu.iq.FU_type_0::SimdFloatMultAcc            0      0.00%     78.76% # Type of FU issued
system.cpu.iq.FU_type_0::SimdFloatSqrt              0      0.00%     78.76% # Type of FU issued
system.cpu.iq.FU_type_0::MemRead             28422650     16.93%     95.69% # Type of FU issued
system.cpu.iq.FU_type_0::MemWrite             7233369      4.31%    100.00% # Type of FU issued
system.cpu.iq.FU_type_0::IprAccess                  0      0.00%    100.00% # Type of FU issued
system.cpu.iq.FU_type_0::InstPrefetch               0      0.00%    100.00% # Type of FU issued
system.cpu.iq.FU_type_0::total              167850077                       # Type of FU issued
system.cpu.iq.rate                           0.417529                       # Inst issue rate
system.cpu.iq.fu_busy_cnt                    13941193                       # FU busy when requested
system.cpu.iq.fu_busy_rate                   0.083057                       # FU busy rate (busy events/executed inst)
system.cpu.iq.int_inst_queue_reads          638845450                       # Number of integer instruction queue reads
system.cpu.iq.int_inst_queue_writes         113099873                       # Number of integer instruction queue writes
system.cpu.iq.int_inst_queue_wakeup_accesses    112959990                       # Number of integer instruction queue wakeup accesses
system.cpu.iq.fp_inst_queue_reads           111402459                       # Number of floating instruction queue reads
system.cpu.iq.fp_inst_queue_writes           54790043                       # Number of floating instruction queue writes
system.cpu.iq.fp_inst_queue_wakeup_accesses     54683911                       # Number of floating instruction queue wakeup accesses
system.cpu.iq.int_alu_accesses              125025218                       # Number of integer alu accesses
system.cpu.iq.fp_alu_accesses                56622357                       # Number of floating point alu accesses
system.cpu.iew.lsq.thread0.forwLoads          1077137                       # Number of loads that had data forwarded from stores
system.cpu.iew.lsq.thread0.invAddrLoads             0                       # Number of loads ignored due to an invalid address
system.cpu.iew.lsq.thread0.squashedLoads        25074                       # Number of loads squashed
system.cpu.iew.lsq.thread0.ignoredResponses            0                       # Number of memory responses ignored because the instruction is squashed
system.cpu.iew.lsq.thread0.memOrderViolation            0                       # Number of memory ordering violations
system.cpu.iew.lsq.thread0.squashedStores         3498                       # Number of stores squashed
system.cpu.iew.lsq.thread0.invAddrSwpfs             0                       # Number of software prefetches ignored due to an invalid address
system.cpu.iew.lsq.thread0.blockedLoads             0                       # Number of blocked loads due to partial load-store forwarding
system.cpu.iew.lsq.thread0.rescheduledLoads            0                       # Number of loads that were rescheduled
system.cpu.iew.lsq.thread0.cacheBlocked             0                       # Number of times an access to memory failed due to the cache being blocked
system.cpu.iew.iewIdleCycles                        0                       # Number of cycles IEW is idle
system.cpu.iew.iewSquashCycles                1092648                       # Number of cycles IEW is squashing
system.cpu.iew.iewBlockCycles                26774674                       # Number of cycles IEW is blocking
system.cpu.iew.iewUnblockCycles              10484862                       # Number of cycles IEW is unblocking
system.cpu.iew.iewDispatchedInsts           167853692                       # Number of instructions dispatched to IQ
system.cpu.iew.iewDispSquashedInsts            625937                       # Number of squashed instructions skipped by dispatch
system.cpu.iew.iewDispLoadInsts              28422704                       # Number of dispatched load instructions
system.cpu.iew.iewDispStoreInsts              7233369                       # Number of dispatched store instructions
system.cpu.iew.iewDispNonSpecInsts                  0                       # Number of dispatched non-speculative instructions
system.cpu.iew.iewIQFullEvents                6928057                       # Number of times the IQ has become full, causing a stall
system.cpu.iew.iewLSQFullEvents                    54                       # Number of times the LSQ has become full, causing a stall
system.cpu.iew.memOrderViolationEvents              0                       # Number of memory order violations
system.cpu.iew.predictedTakenIncorrect        1002296                       # Number of branches that were predicted taken incorrectly
system.cpu.iew.predictedNotTakenIncorrect        90352                       # Number of branches that were predicted not taken incorrectly
system.cpu.iew.branchMispredicts              1092648                       # Number of branch mispredicts detected at execute
system.cpu.iew.iewExecutedInsts             167647123                       # Number of executed instructions
system.cpu.iew.iewExecLoadInsts              28400853                       # Number of load instructions executed
system.cpu.iew.iewExecSquashedInsts            202953                       # Number of squashed instructions skipped in execute
system.cpu.iew.exec_swp                             0                       # number of swp insts executed
system.cpu.iew.exec_nop                             0                       # number of nop insts executed
system.cpu.iew.exec_refs                     35630744                       # number of memory reference insts executed
system.cpu.iew.exec_branches                 12626847                       # Number of branches executed
system.cpu.iew.exec_stores                    7229891                       # Number of stores executed
system.cpu.iew.exec_rate                     0.417024                       # Inst execution rate
system.cpu.iew.wb_sent                      167643942                       # cumulative count of insts sent to commit
system.cpu.iew.wb_count                     167643901                       # cumulative count of insts written-back
system.cpu.iew.wb_producers                  31707114                       # num instructions producing a value
system.cpu.iew.wb_consumers                  35020069                       # num instructions consuming a value
system.cpu.iew.wb_penalized                         0                       # number of instrctions required to write to 'other' IQ
system.cpu.iew.wb_rate                       0.417016                       # insts written-back per cycle
system.cpu.iew.wb_fanout                     0.905398                       # average fanout of values written-back
system.cpu.iew.wb_penalized_rate                    0                       # fraction of instructions written-back that wrote to 'other' IQ
system.cpu.commit.commitSquashedInsts          216831                       # The number of squashed insts skipped by commit
system.cpu.commit.commitNonSpecStalls           11720                       # The number of times commit has been forced to stall to communicate backwards
system.cpu.commit.branchMispredicts           1092648                       # The number of times a branch was mispredicted
system.cpu.commit.committed_per_cycle::samples    399512420                       # Number of insts commited each cycle
system.cpu.commit.committed_per_cycle::mean     0.419604                       # Number of insts commited each cycle
system.cpu.commit.committed_per_cycle::stdev     0.559864                       # Number of insts commited each cycle
system.cpu.commit.committed_per_cycle::underflows            0      0.00%      0.00% # Number of insts commited each cycle
system.cpu.commit.committed_per_cycle::0    245840799     61.54%     61.54% # Number of insts commited each cycle
system.cpu.commit.committed_per_cycle::1    139706384     34.97%     96.50% # Number of insts commited each cycle
system.cpu.commit.committed_per_cycle::2     13965237      3.50%    100.00% # Number of insts commited each cycle
system.cpu.commit.committed_per_cycle::overflows            0      0.00%    100.00% # Number of insts commited each cycle
system.cpu.commit.committed_per_cycle::min_value            0                       # Number of insts commited each cycle
system.cpu.commit.committed_per_cycle::max_value            2                       # Number of insts commited each cycle
system.cpu.commit.committed_per_cycle::total    399512420                       # Number of insts commited each cycle
system.cpu.commit.committedInsts            100000000                       # Number of instructions committed
system.cpu.commit.committedOps              167636858                       # Number of ops (including micro ops) committed
system.cpu.commit.swp_count                         0                       # Number of s/w prefetches committed
system.cpu.commit.refs                       35627500                       # Number of memory references committed
system.cpu.commit.loads                      28397629                       # Number of loads committed
system.cpu.commit.membars                       11720                       # Number of memory barriers committed
system.cpu.commit.branches                   12626847                       # Number of branches committed
system.cpu.commit.fp_insts                   54683872                       # Number of committed floating point instructions.
system.cpu.commit.int_insts                 135087430                       # Number of committed integer instructions.
system.cpu.commit.function_calls                    0                       # Number of function calls committed.
system.cpu.commit.bw_lim_events              13965237                       # number cycles where commit BW limit reached
system.cpu.commit.bw_limited                        0                       # number of insts not committed due to BW limits
system.cpu.rob.rob_reads                    553400872                       # The number of ROB reads
system.cpu.rob.rob_writes                   336800029                       # The number of ROB writes
system.cpu.timesIdled                          134804                       # Number of times that the entire CPU went into an idle state and unscheduled itself
system.cpu.idleCycles                         1403060                       # Total number of cycles that the CPU has spent unscheduled due to idling
system.cpu.committedInsts                   100000000                       # Number of Instructions Simulated
system.cpu.committedOps                     167636858                       # Number of Ops (including micro ops) Simulated
system.cpu.committedInsts_total             100000000                       # Number of Instructions Simulated
system.cpu.cpi                               4.020081                       # CPI: Cycles Per Instruction
system.cpu.cpi_total                         4.020081                       # CPI: Total CPI of All Threads
system.cpu.ipc                               0.248751                       # IPC: Instructions Per Cycle
system.cpu.ipc_total                         0.248751                       # IPC: Total IPC of All Threads
system.cpu.int_regfile_reads                250807736                       # number of integer regfile reads
system.cpu.int_regfile_writes               150686262                       # number of integer regfile writes
system.cpu.fp_regfile_reads                  92777762                       # number of floating regfile reads
system.cpu.fp_regfile_writes                 49139066                       # number of floating regfile writes
system.cpu.misc_regfile_reads                66840303                       # number of misc regfile reads
system.cpu.itb_walker_cache.replacements            0                       # number of replacements
system.cpu.itb_walker_cache.tagsinuse               0                       # Cycle average of tags in use
system.cpu.itb_walker_cache.total_refs              0                       # Total number of references to valid blocks.
system.cpu.itb_walker_cache.sampled_refs            0                       # Sample count of references to valid blocks.
system.cpu.itb_walker_cache.avg_refs              nan                       # Average number of references to valid blocks.
system.cpu.itb_walker_cache.warmup_cycle            0                       # Cycle when the warmup percentage was hit.
system.cpu.itb_walker_cache.blocked_cycles::no_mshrs            0                       # number of cycles access was blocked
system.cpu.itb_walker_cache.blocked_cycles::no_targets            0                       # number of cycles access was blocked
system.cpu.itb_walker_cache.blocked::no_mshrs            0                       # number of cycles access was blocked
system.cpu.itb_walker_cache.blocked::no_targets            0                       # number of cycles access was blocked
system.cpu.itb_walker_cache.avg_blocked_cycles::no_mshrs          nan                       # average number of cycles each access was blocked
system.cpu.itb_walker_cache.avg_blocked_cycles::no_targets          nan                       # average number of cycles each access was blocked
system.cpu.itb_walker_cache.fast_writes             0                       # number of fast writes performed
system.cpu.itb_walker_cache.cache_copies            0                       # number of cache copies performed
system.cpu.itb_walker_cache.no_allocate_misses            0                       # Number of misses that were no-allocate
system.cpu.dtb_walker_cache.replacements            0                       # number of replacements
system.cpu.dtb_walker_cache.tagsinuse               0                       # Cycle average of tags in use
system.cpu.dtb_walker_cache.total_refs              0                       # Total number of references to valid blocks.
system.cpu.dtb_walker_cache.sampled_refs            0                       # Sample count of references to valid blocks.
system.cpu.dtb_walker_cache.avg_refs              nan                       # Average number of references to valid blocks.
system.cpu.dtb_walker_cache.warmup_cycle            0                       # Cycle when the warmup percentage was hit.
system.cpu.dtb_walker_cache.blocked_cycles::no_mshrs            0                       # number of cycles access was blocked
system.cpu.dtb_walker_cache.blocked_cycles::no_targets            0                       # number of cycles access was blocked
system.cpu.dtb_walker_cache.blocked::no_mshrs            0                       # number of cycles access was blocked
system.cpu.dtb_walker_cache.blocked::no_targets            0                       # number of cycles access was blocked
system.cpu.dtb_walker_cache.avg_blocked_cycles::no_mshrs          nan                       # average number of cycles each access was blocked
system.cpu.dtb_walker_cache.avg_blocked_cycles::no_targets          nan                       # average number of cycles each access was blocked
system.cpu.dtb_walker_cache.fast_writes             0                       # number of fast writes performed
system.cpu.dtb_walker_cache.cache_copies            0                       # number of cache copies performed
system.cpu.dtb_walker_cache.no_allocate_misses            0                       # Number of misses that were no-allocate
system.cpu.icache.replacements                   7229                       # number of replacements
system.cpu.icache.tagsinuse                346.233769                       # Cycle average of tags in use
system.cpu.icache.total_refs                 14463756                       # Total number of references to valid blocks.
system.cpu.icache.sampled_refs                   7615                       # Sample count of references to valid blocks.
system.cpu.icache.avg_refs                1899.377019                       # Average number of references to valid blocks.
system.cpu.icache.warmup_cycle                      0                       # Cycle when the warmup percentage was hit.
system.cpu.icache.occ_blocks::cpu.inst     346.233769                       # Average occupied blocks per requestor
system.cpu.icache.occ_percent::cpu.inst      0.676238                       # Average percentage of cache occupancy
system.cpu.icache.occ_percent::total         0.676238                       # Average percentage of cache occupancy
system.cpu.icache.ReadReq_hits::cpu.inst     14463756                       # number of ReadReq hits
system.cpu.icache.ReadReq_hits::total        14463756                       # number of ReadReq hits
system.cpu.icache.demand_hits::cpu.inst      14463756                       # number of demand (read+write) hits
system.cpu.icache.demand_hits::total         14463756                       # number of demand (read+write) hits
system.cpu.icache.overall_hits::cpu.inst     14463756                       # number of overall hits
system.cpu.icache.overall_hits::total        14463756                       # number of overall hits
system.cpu.icache.ReadReq_misses::cpu.inst         7625                       # number of ReadReq misses
system.cpu.icache.ReadReq_misses::total          7625                       # number of ReadReq misses
system.cpu.icache.demand_misses::cpu.inst         7625                       # number of demand (read+write) misses
system.cpu.icache.demand_misses::total           7625                       # number of demand (read+write) misses
system.cpu.icache.overall_misses::cpu.inst         7625                       # number of overall misses
system.cpu.icache.overall_misses::total          7625                       # number of overall misses
system.cpu.icache.ReadReq_miss_latency::cpu.inst    118678000                       # number of ReadReq miss cycles
system.cpu.icache.ReadReq_miss_latency::total    118678000                       # number of ReadReq miss cycles
system.cpu.icache.demand_miss_latency::cpu.inst    118678000                       # number of demand (read+write) miss cycles
system.cpu.icache.demand_miss_latency::total    118678000                       # number of demand (read+write) miss cycles
system.cpu.icache.overall_miss_latency::cpu.inst    118678000                       # number of overall miss cycles
system.cpu.icache.overall_miss_latency::total    118678000                       # number of overall miss cycles
system.cpu.icache.ReadReq_accesses::cpu.inst     14471381                       # number of ReadReq accesses(hits+misses)
system.cpu.icache.ReadReq_accesses::total     14471381                       # number of ReadReq accesses(hits+misses)
system.cpu.icache.demand_accesses::cpu.inst     14471381                       # number of demand (read+write) accesses
system.cpu.icache.demand_accesses::total     14471381                       # number of demand (read+write) accesses
system.cpu.icache.overall_accesses::cpu.inst     14471381                       # number of overall (read+write) accesses
system.cpu.icache.overall_accesses::total     14471381                       # number of overall (read+write) accesses
system.cpu.icache.ReadReq_miss_rate::cpu.inst     0.000527                       # miss rate for ReadReq accesses
system.cpu.icache.ReadReq_miss_rate::total     0.000527                       # miss rate for ReadReq accesses
system.cpu.icache.demand_miss_rate::cpu.inst     0.000527                       # miss rate for demand accesses
system.cpu.icache.demand_miss_rate::total     0.000527                       # miss rate for demand accesses
system.cpu.icache.overall_miss_rate::cpu.inst     0.000527                       # miss rate for overall accesses
system.cpu.icache.overall_miss_rate::total     0.000527                       # miss rate for overall accesses
system.cpu.icache.ReadReq_avg_miss_latency::cpu.inst 15564.327869                       # average ReadReq miss latency
system.cpu.icache.ReadReq_avg_miss_latency::total 15564.327869                       # average ReadReq miss latency
system.cpu.icache.demand_avg_miss_latency::cpu.inst 15564.327869                       # average overall miss latency
system.cpu.icache.demand_avg_miss_latency::total 15564.327869                       # average overall miss latency
system.cpu.icache.overall_avg_miss_latency::cpu.inst 15564.327869                       # average overall miss latency
system.cpu.icache.overall_avg_miss_latency::total 15564.327869                       # average overall miss latency
system.cpu.icache.blocked_cycles::no_mshrs            0                       # number of cycles access was blocked
system.cpu.icache.blocked_cycles::no_targets            0                       # number of cycles access was blocked
system.cpu.icache.blocked::no_mshrs                 0                       # number of cycles access was blocked
system.cpu.icache.blocked::no_targets               0                       # number of cycles access was blocked
system.cpu.icache.avg_blocked_cycles::no_mshrs          nan                       # average number of cycles each access was blocked
system.cpu.icache.avg_blocked_cycles::no_targets          nan                       # average number of cycles each access was blocked
system.cpu.icache.fast_writes                       0                       # number of fast writes performed
system.cpu.icache.cache_copies                      0                       # number of cache copies performed
system.cpu.icache.ReadReq_mshr_hits::cpu.inst           10                       # number of ReadReq MSHR hits
system.cpu.icache.ReadReq_mshr_hits::total           10                       # number of ReadReq MSHR hits
system.cpu.icache.demand_mshr_hits::cpu.inst           10                       # number of demand (read+write) MSHR hits
system.cpu.icache.demand_mshr_hits::total           10                       # number of demand (read+write) MSHR hits
system.cpu.icache.overall_mshr_hits::cpu.inst           10                       # number of overall MSHR hits
system.cpu.icache.overall_mshr_hits::total           10                       # number of overall MSHR hits
system.cpu.icache.ReadReq_mshr_misses::cpu.inst         7615                       # number of ReadReq MSHR misses
system.cpu.icache.ReadReq_mshr_misses::total         7615                       # number of ReadReq MSHR misses
system.cpu.icache.demand_mshr_misses::cpu.inst         7615                       # number of demand (read+write) MSHR misses
system.cpu.icache.demand_mshr_misses::total         7615                       # number of demand (read+write) MSHR misses
system.cpu.icache.overall_mshr_misses::cpu.inst         7615                       # number of overall MSHR misses
system.cpu.icache.overall_mshr_misses::total         7615                       # number of overall MSHR misses
system.cpu.icache.ReadReq_mshr_miss_latency::cpu.inst    103136000                       # number of ReadReq MSHR miss cycles
system.cpu.icache.ReadReq_mshr_miss_latency::total    103136000                       # number of ReadReq MSHR miss cycles
system.cpu.icache.demand_mshr_miss_latency::cpu.inst    103136000                       # number of demand (read+write) MSHR miss cycles
system.cpu.icache.demand_mshr_miss_latency::total    103136000                       # number of demand (read+write) MSHR miss cycles
system.cpu.icache.overall_mshr_miss_latency::cpu.inst    103136000                       # number of overall MSHR miss cycles
system.cpu.icache.overall_mshr_miss_latency::total    103136000                       # number of overall MSHR miss cycles
system.cpu.icache.ReadReq_mshr_miss_rate::cpu.inst     0.000526                       # mshr miss rate for ReadReq accesses
system.cpu.icache.ReadReq_mshr_miss_rate::total     0.000526                       # mshr miss rate for ReadReq accesses
system.cpu.icache.demand_mshr_miss_rate::cpu.inst     0.000526                       # mshr miss rate for demand accesses
system.cpu.icache.demand_mshr_miss_rate::total     0.000526                       # mshr miss rate for demand accesses
system.cpu.icache.overall_mshr_miss_rate::cpu.inst     0.000526                       # mshr miss rate for overall accesses
system.cpu.icache.overall_mshr_miss_rate::total     0.000526                       # mshr miss rate for overall accesses
system.cpu.icache.ReadReq_avg_mshr_miss_latency::cpu.inst 13543.795141                       # average ReadReq mshr miss latency
system.cpu.icache.ReadReq_avg_mshr_miss_latency::total 13543.795141                       # average ReadReq mshr miss latency
system.cpu.icache.demand_avg_mshr_miss_latency::cpu.inst 13543.795141                       # average overall mshr miss latency
system.cpu.icache.demand_avg_mshr_miss_latency::total 13543.795141                       # average overall mshr miss latency
system.cpu.icache.overall_avg_mshr_miss_latency::cpu.inst 13543.795141                       # average overall mshr miss latency
system.cpu.icache.overall_avg_mshr_miss_latency::total 13543.795141                       # average overall mshr miss latency
system.cpu.icache.no_allocate_misses                0                       # Number of misses that were no-allocate
system.cpu.dcache.replacements                 404116                       # number of replacements
system.cpu.dcache.tagsinuse                511.702959                       # Cycle average of tags in use
system.cpu.dcache.total_refs                 34063276                       # Total number of references to valid blocks.
system.cpu.dcache.sampled_refs                 404628                       # Sample count of references to valid blocks.
system.cpu.dcache.avg_refs                  84.184179                       # Average number of references to valid blocks.
system.cpu.dcache.warmup_cycle           433063428000                       # Cycle when the warmup percentage was hit.
system.cpu.dcache.occ_blocks::cpu.data     511.702959                       # Average occupied blocks per requestor
system.cpu.dcache.occ_percent::cpu.data      0.999420                       # Average percentage of cache occupancy
system.cpu.dcache.occ_percent::total         0.999420                       # Average percentage of cache occupancy
system.cpu.dcache.ReadReq_hits::cpu.data     27020699                       # number of ReadReq hits
system.cpu.dcache.ReadReq_hits::total        27020699                       # number of ReadReq hits
system.cpu.dcache.WriteReq_hits::cpu.data      7042577                       # number of WriteReq hits
system.cpu.dcache.WriteReq_hits::total        7042577                       # number of WriteReq hits
system.cpu.dcache.demand_hits::cpu.data      34063276                       # number of demand (read+write) hits
system.cpu.dcache.demand_hits::total         34063276                       # number of demand (read+write) hits
system.cpu.dcache.overall_hits::cpu.data     34063276                       # number of overall hits
system.cpu.dcache.overall_hits::total        34063276                       # number of overall hits
system.cpu.dcache.ReadReq_misses::cpu.data       302976                       # number of ReadReq misses
system.cpu.dcache.ReadReq_misses::total        302976                       # number of ReadReq misses
system.cpu.dcache.WriteReq_misses::cpu.data       187294                       # number of WriteReq misses
system.cpu.dcache.WriteReq_misses::total       187294                       # number of WriteReq misses
system.cpu.dcache.demand_misses::cpu.data       490270                       # number of demand (read+write) misses
system.cpu.dcache.demand_misses::total         490270                       # number of demand (read+write) misses
system.cpu.dcache.overall_misses::cpu.data       490270                       # number of overall misses
system.cpu.dcache.overall_misses::total        490270                       # number of overall misses
system.cpu.dcache.ReadReq_miss_latency::cpu.data   3541920500                       # number of ReadReq miss cycles
system.cpu.dcache.ReadReq_miss_latency::total   3541920500                       # number of ReadReq miss cycles
system.cpu.dcache.WriteReq_miss_latency::cpu.data   2462931000                       # number of WriteReq miss cycles
system.cpu.dcache.WriteReq_miss_latency::total   2462931000                       # number of WriteReq miss cycles
system.cpu.dcache.demand_miss_latency::cpu.data   6004851500                       # number of demand (read+write) miss cycles
system.cpu.dcache.demand_miss_latency::total   6004851500                       # number of demand (read+write) miss cycles
system.cpu.dcache.overall_miss_latency::cpu.data   6004851500                       # number of overall miss cycles
system.cpu.dcache.overall_miss_latency::total   6004851500                       # number of overall miss cycles
system.cpu.dcache.ReadReq_accesses::cpu.data     27323675                       # number of ReadReq accesses(hits+misses)
system.cpu.dcache.ReadReq_accesses::total     27323675                       # number of ReadReq accesses(hits+misses)
system.cpu.dcache.WriteReq_accesses::cpu.data      7229871                       # number of WriteReq accesses(hits+misses)
system.cpu.dcache.WriteReq_accesses::total      7229871                       # number of WriteReq accesses(hits+misses)
system.cpu.dcache.demand_accesses::cpu.data     34553546                       # number of demand (read+write) accesses
system.cpu.dcache.demand_accesses::total     34553546                       # number of demand (read+write) accesses
system.cpu.dcache.overall_accesses::cpu.data     34553546                       # number of overall (read+write) accesses
system.cpu.dcache.overall_accesses::total     34553546                       # number of overall (read+write) accesses
system.cpu.dcache.ReadReq_miss_rate::cpu.data     0.011088                       # miss rate for ReadReq accesses
system.cpu.dcache.ReadReq_miss_rate::total     0.011088                       # miss rate for ReadReq accesses
system.cpu.dcache.WriteReq_miss_rate::cpu.data     0.025906                       # miss rate for WriteReq accesses
system.cpu.dcache.WriteReq_miss_rate::total     0.025906                       # miss rate for WriteReq accesses
system.cpu.dcache.demand_miss_rate::cpu.data     0.014189                       # miss rate for demand accesses
system.cpu.dcache.demand_miss_rate::total     0.014189                       # miss rate for demand accesses
system.cpu.dcache.overall_miss_rate::cpu.data     0.014189                       # miss rate for overall accesses
system.cpu.dcache.overall_miss_rate::total     0.014189                       # miss rate for overall accesses
system.cpu.dcache.ReadReq_avg_miss_latency::cpu.data 11690.432576                       # average ReadReq miss latency
system.cpu.dcache.ReadReq_avg_miss_latency::total 11690.432576                       # average ReadReq miss latency
system.cpu.dcache.WriteReq_avg_miss_latency::cpu.data 13150.079554                       # average WriteReq miss latency
system.cpu.dcache.WriteReq_avg_miss_latency::total 13150.079554                       # average WriteReq miss latency
system.cpu.dcache.demand_avg_miss_latency::cpu.data 12248.050054                       # average overall miss latency
system.cpu.dcache.demand_avg_miss_latency::total 12248.050054                       # average overall miss latency
system.cpu.dcache.overall_avg_miss_latency::cpu.data 12248.050054                       # average overall miss latency
system.cpu.dcache.overall_avg_miss_latency::total 12248.050054                       # average overall miss latency
system.cpu.dcache.blocked_cycles::no_mshrs            0                       # number of cycles access was blocked
system.cpu.dcache.blocked_cycles::no_targets            0                       # number of cycles access was blocked
system.cpu.dcache.blocked::no_mshrs                 0                       # number of cycles access was blocked
system.cpu.dcache.blocked::no_targets               0                       # number of cycles access was blocked
system.cpu.dcache.avg_blocked_cycles::no_mshrs          nan                       # average number of cycles each access was blocked
system.cpu.dcache.avg_blocked_cycles::no_targets          nan                       # average number of cycles each access was blocked
system.cpu.dcache.fast_writes                       0                       # number of fast writes performed
system.cpu.dcache.cache_copies                      0                       # number of cache copies performed
system.cpu.dcache.writebacks::writebacks       230570                       # number of writebacks
system.cpu.dcache.writebacks::total            230570                       # number of writebacks
system.cpu.dcache.ReadReq_mshr_hits::cpu.data        85642                       # number of ReadReq MSHR hits
system.cpu.dcache.ReadReq_mshr_hits::total        85642                       # number of ReadReq MSHR hits
system.cpu.dcache.demand_mshr_hits::cpu.data        85642                       # number of demand (read+write) MSHR hits
system.cpu.dcache.demand_mshr_hits::total        85642                       # number of demand (read+write) MSHR hits
system.cpu.dcache.overall_mshr_hits::cpu.data        85642                       # number of overall MSHR hits
system.cpu.dcache.overall_mshr_hits::total        85642                       # number of overall MSHR hits
system.cpu.dcache.ReadReq_mshr_misses::cpu.data       217334                       # number of ReadReq MSHR misses
system.cpu.dcache.ReadReq_mshr_misses::total       217334                       # number of ReadReq MSHR misses
system.cpu.dcache.WriteReq_mshr_misses::cpu.data       187294                       # number of WriteReq MSHR misses
system.cpu.dcache.WriteReq_mshr_misses::total       187294                       # number of WriteReq MSHR misses
system.cpu.dcache.demand_mshr_misses::cpu.data       404628                       # number of demand (read+write) MSHR misses
system.cpu.dcache.demand_mshr_misses::total       404628                       # number of demand (read+write) MSHR misses
system.cpu.dcache.overall_mshr_misses::cpu.data       404628                       # number of overall MSHR misses
system.cpu.dcache.overall_mshr_misses::total       404628                       # number of overall MSHR misses
system.cpu.dcache.ReadReq_mshr_miss_latency::cpu.data   2418981000                       # number of ReadReq MSHR miss cycles
system.cpu.dcache.ReadReq_mshr_miss_latency::total   2418981000                       # number of ReadReq MSHR miss cycles
system.cpu.dcache.WriteReq_mshr_miss_latency::cpu.data   2088343000                       # number of WriteReq MSHR miss cycles
system.cpu.dcache.WriteReq_mshr_miss_latency::total   2088343000                       # number of WriteReq MSHR miss cycles
system.cpu.dcache.demand_mshr_miss_latency::cpu.data   4507324000                       # number of demand (read+write) MSHR miss cycles
system.cpu.dcache.demand_mshr_miss_latency::total   4507324000                       # number of demand (read+write) MSHR miss cycles
system.cpu.dcache.overall_mshr_miss_latency::cpu.data   4507324000                       # number of overall MSHR miss cycles
system.cpu.dcache.overall_mshr_miss_latency::total   4507324000                       # number of overall MSHR miss cycles
system.cpu.dcache.ReadReq_mshr_miss_rate::cpu.data     0.007954                       # mshr miss rate for ReadReq accesses
system.cpu.dcache.ReadReq_mshr_miss_rate::total     0.007954                       # mshr miss rate for ReadReq accesses
system.cpu.dcache.WriteReq_mshr_miss_rate::cpu.data     0.025906                       # mshr miss rate for WriteReq accesses
system.cpu.dcache.WriteReq_mshr_miss_rate::total     0.025906                       # mshr miss rate for WriteReq accesses
system.cpu.dcache.demand_mshr_miss_rate::cpu.data     0.011710                       # mshr miss rate for demand accesses
system.cpu.dcache.demand_mshr_miss_rate::total     0.011710                       # mshr miss rate for demand accesses
system.cpu.dcache.overall_mshr_miss_rate::cpu.data     0.011710                       # mshr miss rate for overall accesses
system.cpu.dcache.overall_mshr_miss_rate::total     0.011710                       # mshr miss rate for overall accesses
system.cpu.dcache.ReadReq_avg_mshr_miss_latency::cpu.data 11130.246533                       # average ReadReq mshr miss latency
system.cpu.dcache.ReadReq_avg_mshr_miss_latency::total 11130.246533                       # average ReadReq mshr miss latency
system.cpu.dcache.WriteReq_avg_mshr_miss_latency::cpu.data 11150.079554                       # average WriteReq mshr miss latency
system.cpu.dcache.WriteReq_avg_mshr_miss_latency::total 11150.079554                       # average WriteReq mshr miss latency
system.cpu.dcache.demand_avg_mshr_miss_latency::cpu.data 11139.426832                       # average overall mshr miss latency
system.cpu.dcache.demand_avg_mshr_miss_latency::total 11139.426832                       # average overall mshr miss latency
system.cpu.dcache.overall_avg_mshr_miss_latency::cpu.data 11139.426832                       # average overall mshr miss latency
system.cpu.dcache.overall_avg_mshr_miss_latency::total 11139.426832                       # average overall mshr miss latency
system.cpu.dcache.no_allocate_misses                0                       # Number of misses that were no-allocate

---------- End Simulation Statistics   ----------
