
---------- Begin Simulation Statistics ----------
sim_seconds                                  0.113186                       # Number of seconds simulated
sim_ticks                                113186363500                       # Number of ticks simulated
final_tick                               113186363500                       # Number of ticks from beginning of simulation (restored from checkpoints and never reset)
sim_freq                                 1000000000000                       # Frequency of simulated ticks
host_inst_rate                                  93311                       # Simulator instruction rate (inst/s)
host_op_rate                                   170799                       # Simulator op (including micro ops) rate (op/s)
host_tick_rate                              105615706                       # Simulator tick rate (ticks/s)
host_mem_usage                                2214408                       # Number of bytes of host memory used
host_seconds                                  1071.68                       # Real time elapsed on the host
sim_insts                                   100000000                       # Number of instructions simulated
sim_ops                                     183042322                       # Number of ops (including micro ops) simulated
system.physmem.bytes_read::cpu.inst             49984                       # Number of bytes read from this memory
system.physmem.bytes_read::cpu.data           1663040                       # Number of bytes read from this memory
system.physmem.bytes_read::total              1713024                       # Number of bytes read from this memory
system.physmem.bytes_inst_read::cpu.inst        49984                       # Number of instructions bytes read from this memory
system.physmem.bytes_inst_read::total           49984                       # Number of instructions bytes read from this memory
system.physmem.bytes_written::writebacks      1144192                       # Number of bytes written to this memory
system.physmem.bytes_written::total           1144192                       # Number of bytes written to this memory
system.physmem.num_reads::cpu.inst                781                       # Number of read requests responded to by this memory
system.physmem.num_reads::cpu.data              25985                       # Number of read requests responded to by this memory
system.physmem.num_reads::total                 26766                       # Number of read requests responded to by this memory
system.physmem.num_writes::writebacks           17878                       # Number of write requests responded to by this memory
system.physmem.num_writes::total                17878                       # Number of write requests responded to by this memory
system.physmem.bw_read::cpu.inst               441608                       # Total read bandwidth from this memory (bytes/s)
system.physmem.bw_read::cpu.data             14692936                       # Total read bandwidth from this memory (bytes/s)
system.physmem.bw_read::total                15134544                       # Total read bandwidth from this memory (bytes/s)
system.physmem.bw_inst_read::cpu.inst          441608                       # Instruction read bandwidth from this memory (bytes/s)
system.physmem.bw_inst_read::total             441608                       # Instruction read bandwidth from this memory (bytes/s)
system.physmem.bw_write::writebacks          10108921                       # Write bandwidth from this memory (bytes/s)
system.physmem.bw_write::total               10108921                       # Write bandwidth from this memory (bytes/s)
system.physmem.bw_total::writebacks          10108921                       # Total bandwidth to/from this memory (bytes/s)
system.physmem.bw_total::cpu.inst              441608                       # Total bandwidth to/from this memory (bytes/s)
system.physmem.bw_total::cpu.data            14692936                       # Total bandwidth to/from this memory (bytes/s)
system.physmem.bw_total::total               25243465                       # Total bandwidth to/from this memory (bytes/s)
system.l2.replacements                          22653                       # number of replacements
system.l2.tagsinuse                       3055.158011                       # Cycle average of tags in use
system.l2.total_refs                           250865                       # Total number of references to valid blocks.
system.l2.sampled_refs                          26623                       # Sample count of references to valid blocks.
system.l2.avg_refs                           9.422867                       # Average number of references to valid blocks.
system.l2.warmup_cycle                    62139221000                       # Cycle when the warmup percentage was hit.
system.l2.occ_blocks::writebacks          2366.271452                       # Average occupied blocks per requestor
system.l2.occ_blocks::cpu.inst             315.404759                       # Average occupied blocks per requestor
system.l2.occ_blocks::cpu.data             373.481800                       # Average occupied blocks per requestor
system.l2.occ_percent::writebacks            0.577703                       # Average percentage of cache occupancy
system.l2.occ_percent::cpu.inst              0.077003                       # Average percentage of cache occupancy
system.l2.occ_percent::cpu.data              0.091182                       # Average percentage of cache occupancy
system.l2.occ_percent::total                 0.745888                       # Average percentage of cache occupancy
system.l2.ReadReq_hits::cpu.inst                67084                       # number of ReadReq hits
system.l2.ReadReq_hits::cpu.data                65274                       # number of ReadReq hits
system.l2.ReadReq_hits::total                  132358                       # number of ReadReq hits
system.l2.Writeback_hits::writebacks           138027                       # number of Writeback hits
system.l2.Writeback_hits::total                138027                       # number of Writeback hits
system.l2.ReadExReq_hits::cpu.data              51683                       # number of ReadExReq hits
system.l2.ReadExReq_hits::total                 51683                       # number of ReadExReq hits
system.l2.demand_hits::cpu.inst                 67084                       # number of demand (read+write) hits
system.l2.demand_hits::cpu.data                116957                       # number of demand (read+write) hits
system.l2.demand_hits::total                   184041                       # number of demand (read+write) hits
system.l2.overall_hits::cpu.inst                67084                       # number of overall hits
system.l2.overall_hits::cpu.data               116957                       # number of overall hits
system.l2.overall_hits::total                  184041                       # number of overall hits
system.l2.ReadReq_misses::cpu.inst                781                       # number of ReadReq misses
system.l2.ReadReq_misses::cpu.data               6465                       # number of ReadReq misses
system.l2.ReadReq_misses::total                  7246                       # number of ReadReq misses
system.l2.ReadExReq_misses::cpu.data            19520                       # number of ReadExReq misses
system.l2.ReadExReq_misses::total               19520                       # number of ReadExReq misses
system.l2.demand_misses::cpu.inst                 781                       # number of demand (read+write) misses
system.l2.demand_misses::cpu.data               25985                       # number of demand (read+write) misses
system.l2.demand_misses::total                  26766                       # number of demand (read+write) misses
system.l2.overall_misses::cpu.inst                781                       # number of overall misses
system.l2.overall_misses::cpu.data              25985                       # number of overall misses
system.l2.overall_misses::total                 26766                       # number of overall misses
system.l2.ReadReq_miss_latency::cpu.inst     41519500                       # number of ReadReq miss cycles
system.l2.ReadReq_miss_latency::cpu.data    338687500                       # number of ReadReq miss cycles
system.l2.ReadReq_miss_latency::total       380207000                       # number of ReadReq miss cycles
system.l2.ReadExReq_miss_latency::cpu.data   1034271500                       # number of ReadExReq miss cycles
system.l2.ReadExReq_miss_latency::total    1034271500                       # number of ReadExReq miss cycles
system.l2.demand_miss_latency::cpu.inst      41519500                       # number of demand (read+write) miss cycles
system.l2.demand_miss_latency::cpu.data    1372959000                       # number of demand (read+write) miss cycles
system.l2.demand_miss_latency::total       1414478500                       # number of demand (read+write) miss cycles
system.l2.overall_miss_latency::cpu.inst     41519500                       # number of overall miss cycles
system.l2.overall_miss_latency::cpu.data   1372959000                       # number of overall miss cycles
system.l2.overall_miss_latency::total      1414478500                       # number of overall miss cycles
system.l2.ReadReq_accesses::cpu.inst            67865                       # number of ReadReq accesses(hits+misses)
system.l2.ReadReq_accesses::cpu.data            71739                       # number of ReadReq accesses(hits+misses)
system.l2.ReadReq_accesses::total              139604                       # number of ReadReq accesses(hits+misses)
system.l2.Writeback_accesses::writebacks       138027                       # number of Writeback accesses(hits+misses)
system.l2.Writeback_accesses::total            138027                       # number of Writeback accesses(hits+misses)
system.l2.ReadExReq_accesses::cpu.data          71203                       # number of ReadExReq accesses(hits+misses)
system.l2.ReadExReq_accesses::total             71203                       # number of ReadExReq accesses(hits+misses)
system.l2.demand_accesses::cpu.inst             67865                       # number of demand (read+write) accesses
system.l2.demand_accesses::cpu.data            142942                       # number of demand (read+write) accesses
system.l2.demand_accesses::total               210807                       # number of demand (read+write) accesses
system.l2.overall_accesses::cpu.inst            67865                       # number of overall (read+write) accesses
system.l2.overall_accesses::cpu.data           142942                       # number of overall (read+write) accesses
system.l2.overall_accesses::total              210807                       # number of overall (read+write) accesses
system.l2.ReadReq_miss_rate::cpu.inst        0.011508                       # miss rate for ReadReq accesses
system.l2.ReadReq_miss_rate::cpu.data        0.090118                       # miss rate for ReadReq accesses
system.l2.ReadReq_miss_rate::total           0.051904                       # miss rate for ReadReq accesses
system.l2.ReadExReq_miss_rate::cpu.data      0.274146                       # miss rate for ReadExReq accesses
system.l2.ReadExReq_miss_rate::total         0.274146                       # miss rate for ReadExReq accesses
system.l2.demand_miss_rate::cpu.inst         0.011508                       # miss rate for demand accesses
system.l2.demand_miss_rate::cpu.data         0.181787                       # miss rate for demand accesses
system.l2.demand_miss_rate::total            0.126969                       # miss rate for demand accesses
system.l2.overall_miss_rate::cpu.inst        0.011508                       # miss rate for overall accesses
system.l2.overall_miss_rate::cpu.data        0.181787                       # miss rate for overall accesses
system.l2.overall_miss_rate::total           0.126969                       # miss rate for overall accesses
system.l2.ReadReq_avg_miss_latency::cpu.inst 53161.971831                       # average ReadReq miss latency
system.l2.ReadReq_avg_miss_latency::cpu.data 52387.857695                       # average ReadReq miss latency
system.l2.ReadReq_avg_miss_latency::total 52471.294507                       # average ReadReq miss latency
system.l2.ReadExReq_avg_miss_latency::cpu.data 52985.220287                       # average ReadExReq miss latency
system.l2.ReadExReq_avg_miss_latency::total 52985.220287                       # average ReadExReq miss latency
system.l2.demand_avg_miss_latency::cpu.inst 53161.971831                       # average overall miss latency
system.l2.demand_avg_miss_latency::cpu.data 52836.598037                       # average overall miss latency
system.l2.demand_avg_miss_latency::total 52846.092057                       # average overall miss latency
system.l2.overall_avg_miss_latency::cpu.inst 53161.971831                       # average overall miss latency
system.l2.overall_avg_miss_latency::cpu.data 52836.598037                       # average overall miss latency
system.l2.overall_avg_miss_latency::total 52846.092057                       # average overall miss latency
system.l2.blocked_cycles::no_mshrs                  0                       # number of cycles access was blocked
system.l2.blocked_cycles::no_targets                0                       # number of cycles access was blocked
system.l2.blocked::no_mshrs                         0                       # number of cycles access was blocked
system.l2.blocked::no_targets                       0                       # number of cycles access was blocked
system.l2.avg_blocked_cycles::no_mshrs            nan                       # average number of cycles each access was blocked
system.l2.avg_blocked_cycles::no_targets          nan                       # average number of cycles each access was blocked
system.l2.fast_writes                               0                       # number of fast writes performed
system.l2.cache_copies                              0                       # number of cache copies performed
system.l2.writebacks::writebacks                17878                       # number of writebacks
system.l2.writebacks::total                     17878                       # number of writebacks
system.l2.ReadReq_mshr_misses::cpu.inst           781                       # number of ReadReq MSHR misses
system.l2.ReadReq_mshr_misses::cpu.data          6465                       # number of ReadReq MSHR misses
system.l2.ReadReq_mshr_misses::total             7246                       # number of ReadReq MSHR misses
system.l2.ReadExReq_mshr_misses::cpu.data        19520                       # number of ReadExReq MSHR misses
system.l2.ReadExReq_mshr_misses::total          19520                       # number of ReadExReq MSHR misses
system.l2.demand_mshr_misses::cpu.inst            781                       # number of demand (read+write) MSHR misses
system.l2.demand_mshr_misses::cpu.data          25985                       # number of demand (read+write) MSHR misses
system.l2.demand_mshr_misses::total             26766                       # number of demand (read+write) MSHR misses
system.l2.overall_mshr_misses::cpu.inst           781                       # number of overall MSHR misses
system.l2.overall_mshr_misses::cpu.data         25985                       # number of overall MSHR misses
system.l2.overall_mshr_misses::total            26766                       # number of overall MSHR misses
system.l2.ReadReq_mshr_miss_latency::cpu.inst     31974000                       # number of ReadReq MSHR miss cycles
system.l2.ReadReq_mshr_miss_latency::cpu.data    259692000                       # number of ReadReq MSHR miss cycles
system.l2.ReadReq_mshr_miss_latency::total    291666000                       # number of ReadReq MSHR miss cycles
system.l2.ReadExReq_mshr_miss_latency::cpu.data    796575500                       # number of ReadExReq MSHR miss cycles
system.l2.ReadExReq_mshr_miss_latency::total    796575500                       # number of ReadExReq MSHR miss cycles
system.l2.demand_mshr_miss_latency::cpu.inst     31974000                       # number of demand (read+write) MSHR miss cycles
system.l2.demand_mshr_miss_latency::cpu.data   1056267500                       # number of demand (read+write) MSHR miss cycles
system.l2.demand_mshr_miss_latency::total   1088241500                       # number of demand (read+write) MSHR miss cycles
system.l2.overall_mshr_miss_latency::cpu.inst     31974000                       # number of overall MSHR miss cycles
system.l2.overall_mshr_miss_latency::cpu.data   1056267500                       # number of overall MSHR miss cycles
system.l2.overall_mshr_miss_latency::total   1088241500                       # number of overall MSHR miss cycles
system.l2.ReadReq_mshr_miss_rate::cpu.inst     0.011508                       # mshr miss rate for ReadReq accesses
system.l2.ReadReq_mshr_miss_rate::cpu.data     0.090118                       # mshr miss rate for ReadReq accesses
system.l2.ReadReq_mshr_miss_rate::total      0.051904                       # mshr miss rate for ReadReq accesses
system.l2.ReadExReq_mshr_miss_rate::cpu.data     0.274146                       # mshr miss rate for ReadExReq accesses
system.l2.ReadExReq_mshr_miss_rate::total     0.274146                       # mshr miss rate for ReadExReq accesses
system.l2.demand_mshr_miss_rate::cpu.inst     0.011508                       # mshr miss rate for demand accesses
system.l2.demand_mshr_miss_rate::cpu.data     0.181787                       # mshr miss rate for demand accesses
system.l2.demand_mshr_miss_rate::total       0.126969                       # mshr miss rate for demand accesses
system.l2.overall_mshr_miss_rate::cpu.inst     0.011508                       # mshr miss rate for overall accesses
system.l2.overall_mshr_miss_rate::cpu.data     0.181787                       # mshr miss rate for overall accesses
system.l2.overall_mshr_miss_rate::total      0.126969                       # mshr miss rate for overall accesses
system.l2.ReadReq_avg_mshr_miss_latency::cpu.inst 40939.820743                       # average ReadReq mshr miss latency
system.l2.ReadReq_avg_mshr_miss_latency::cpu.data 40168.909513                       # average ReadReq mshr miss latency
system.l2.ReadReq_avg_mshr_miss_latency::total 40252.001104                       # average ReadReq mshr miss latency
system.l2.ReadExReq_avg_mshr_miss_latency::cpu.data 40808.171107                       # average ReadExReq mshr miss latency
system.l2.ReadExReq_avg_mshr_miss_latency::total 40808.171107                       # average ReadExReq mshr miss latency
system.l2.demand_avg_mshr_miss_latency::cpu.inst 40939.820743                       # average overall mshr miss latency
system.l2.demand_avg_mshr_miss_latency::cpu.data 40649.124495                       # average overall mshr miss latency
system.l2.demand_avg_mshr_miss_latency::total 40657.606665                       # average overall mshr miss latency
system.l2.overall_avg_mshr_miss_latency::cpu.inst 40939.820743                       # average overall mshr miss latency
system.l2.overall_avg_mshr_miss_latency::cpu.data 40649.124495                       # average overall mshr miss latency
system.l2.overall_avg_mshr_miss_latency::total 40657.606665                       # average overall mshr miss latency
system.l2.no_allocate_misses                        0                       # Number of misses that were no-allocate
system.cpu.branchPred.lookups                17398224                       # Number of BP lookups
system.cpu.branchPred.condPredicted          17398224                       # Number of conditional branches predicted
system.cpu.branchPred.condIncorrect           1108838                       # Number of conditional branches incorrect
system.cpu.branchPred.BTBLookups             11833250                       # Number of BTB lookups
system.cpu.branchPred.BTBHits                10088011                       # Number of BTB hits
system.cpu.branchPred.BTBCorrect                    0                       # Number of correct BTB predictions (this stat may not work properly.
system.cpu.branchPred.BTBHitPct             85.251398                       # BTB Hit Percentage
system.cpu.branchPred.usedRAS                       0                       # Number of times the RAS was used to get a target.
system.cpu.branchPred.RASInCorrect                  0                       # Number of incorrect RAS predictions.
system.cpu.workload.num_syscalls                   25                       # Number of system calls
system.cpu.numCycles                        226372728                       # number of cpu cycles simulated
system.cpu.numWorkItemsStarted                      0                       # number of work items this cpu started
system.cpu.numWorkItemsCompleted                    0                       # number of work items this cpu completed
system.cpu.fetch.icacheStallCycles           16789055                       # Number of cycles fetch is stalled on an Icache miss
system.cpu.fetch.Insts                      104768719                       # Number of instructions fetch has processed
system.cpu.fetch.Branches                    17398224                       # Number of branches that fetch encountered
system.cpu.fetch.predictedBranches           10088011                       # Number of branches that fetch has predicted taken
system.cpu.fetch.Cycles                      54905433                       # Number of cycles fetch has run and was not squashing or blocked
system.cpu.fetch.SquashCycles                 2222378                       # Number of cycles fetch has spent squashing
system.cpu.fetch.BlockedCycles              152938895                       # Number of cycles fetch has spent blocked
system.cpu.fetch.CacheLines                  14666689                       # Number of cache lines fetched
system.cpu.fetch.IcacheSquashes                 74330                       # Number of outstanding Icache misses that were squashed
system.cpu.fetch.rateDist::samples          225746870                       # Number of instructions fetched each cycle (Total)
system.cpu.fetch.rateDist::mean              0.850986                       # Number of instructions fetched each cycle (Total)
system.cpu.fetch.rateDist::stdev             1.583765                       # Number of instructions fetched each cycle (Total)
system.cpu.fetch.rateDist::underflows               0      0.00%      0.00% # Number of instructions fetched each cycle (Total)
system.cpu.fetch.rateDist::0                172079185     76.23%     76.23% # Number of instructions fetched each cycle (Total)
system.cpu.fetch.rateDist::1                  3424429      1.52%     77.74% # Number of instructions fetched each cycle (Total)
system.cpu.fetch.rateDist::2                  4219090      1.87%     79.61% # Number of instructions fetched each cycle (Total)
system.cpu.fetch.rateDist::3                  3851951      1.71%     81.32% # Number of instructions fetched each cycle (Total)
system.cpu.fetch.rateDist::4                 42172215     18.68%    100.00% # Number of instructions fetched each cycle (Total)
system.cpu.fetch.rateDist::overflows                0      0.00%    100.00% # Number of instructions fetched each cycle (Total)
system.cpu.fetch.rateDist::min_value                0                       # Number of instructions fetched each cycle (Total)
system.cpu.fetch.rateDist::max_value                4                       # Number of instructions fetched each cycle (Total)
system.cpu.fetch.rateDist::total            225746870                       # Number of instructions fetched each cycle (Total)
system.cpu.fetch.branchRate                  0.076857                       # Number of branch fetches per cycle
system.cpu.fetch.rate                        0.462815                       # Number of inst fetches per cycle
system.cpu.decode.IdleCycles                 48000132                       # Number of cycles decode is idle
system.cpu.decode.BlockedCycles             123427527                       # Number of cycles decode is blocked
system.cpu.decode.RunCycles                  34179498                       # Number of cycles decode is running
system.cpu.decode.UnblockCycles              19026226                       # Number of cycles decode is unblocking
system.cpu.decode.SquashCycles                1113487                       # Number of cycles decode is squashing
system.cpu.decode.DecodedInsts              190370665                       # Number of instructions handled by decode
system.cpu.rename.SquashCycles                1113487                       # Number of cycles rename is squashing
system.cpu.rename.IdleCycles                 58514857                       # Number of cycles rename is idle
system.cpu.rename.BlockCycles                65390663                       # Number of cycles rename is blocking
system.cpu.rename.serializeStallCycles           4292                       # count of cycles rename stalled for serializing inst
system.cpu.rename.RunCycles                  32460668                       # Number of cycles rename is running
system.cpu.rename.UnblockCycles              68262903                       # Number of cycles rename is unblocking
system.cpu.rename.RenamedInsts              187711027                       # Number of instructions processed by rename
system.cpu.rename.IQFullEvents               55476214                       # Number of times rename has blocked due to IQ full
system.cpu.rename.LSQFullEvents                   193                       # Number of times rename has blocked due to LSQ full
system.cpu.rename.RenamedOperands           206832204                       # Number of destination operands rename has renamed
system.cpu.rename.RenameLookups             448077985                       # Number of register rename lookups that rename has made
system.cpu.rename.int_rename_lookups        316770635                       # Number of integer rename lookups
system.cpu.rename.fp_rename_lookups         131307350                       # Number of floating rename lookups
system.cpu.rename.CommittedMaps             201638969                       # Number of HB maps that are committed
system.cpu.rename.UndoneMaps                  5193226                       # Number of HB maps that are undone due to squashing
system.cpu.rename.serializingInsts                 97                       # count of serializing insts renamed
system.cpu.rename.tempSerializingInsts             97                       # count of temporary serializing insts renamed
system.cpu.rename.skidInsts                 109687512                       # count of insts added to the skid buffer
system.cpu.memDep0.insertedLoads             21741674                       # Number of loads inserted to the mem dependence unit.
system.cpu.memDep0.insertedStores            11315360                       # Number of stores inserted to the mem dependence unit.
system.cpu.memDep0.conflictingLoads              3301                       # Number of conflicting loads.
system.cpu.memDep0.conflictingStores                2                       # Number of conflicting stores.
system.cpu.iq.iqInstsAdded                  185516146                       # Number of instructions added to the IQ (excludes non-spec)
system.cpu.iq.iqNonSpecInstsAdded                 117                       # Number of non-speculative instructions added to the IQ
system.cpu.iq.iqInstsIssued                 185107678                       # Number of instructions issued
system.cpu.iq.iqSquashedInstsIssued             21217                       # Number of squashed instructions issued
system.cpu.iq.iqSquashedInstsExamined         1312283                       # Number of squashed instructions iterated over during squash; mainly for profiling
system.cpu.iq.iqSquashedOperandsExamined      1978570                       # Number of squashed operands that are examined and possibly removed from graph
system.cpu.iq.iqSquashedNonSpecRemoved             31                       # Number of squashed non-spec instructions that were removed
system.cpu.iq.issued_per_cycle::samples     225746870                       # Number of insts issued each cycle
system.cpu.iq.issued_per_cycle::mean         0.819979                       # Number of insts issued each cycle
system.cpu.iq.issued_per_cycle::stdev        0.858769                       # Number of insts issued each cycle
system.cpu.iq.issued_per_cycle::underflows            0      0.00%      0.00% # Number of insts issued each cycle
system.cpu.iq.issued_per_cycle::0            94933968     42.05%     42.05% # Number of insts issued each cycle
system.cpu.iq.issued_per_cycle::1            87889939     38.93%     80.99% # Number of insts issued each cycle
system.cpu.iq.issued_per_cycle::2            32465313     14.38%     95.37% # Number of insts issued each cycle
system.cpu.iq.issued_per_cycle::3             9543487      4.23%     99.60% # Number of insts issued each cycle
system.cpu.iq.issued_per_cycle::4              914163      0.40%    100.00% # Number of insts issued each cycle
system.cpu.iq.issued_per_cycle::overflows            0      0.00%    100.00% # Number of insts issued each cycle
system.cpu.iq.issued_per_cycle::min_value            0                       # Number of insts issued each cycle
system.cpu.iq.issued_per_cycle::max_value            4                       # Number of insts issued each cycle
system.cpu.iq.issued_per_cycle::total       225746870                       # Number of insts issued each cycle
system.cpu.iq.fu_full::No_OpClass                   0      0.00%      0.00% # attempts to use FU when none available
system.cpu.iq.fu_full::IntAlu                       0      0.00%      0.00% # attempts to use FU when none available
system.cpu.iq.fu_full::IntMult                      0      0.00%      0.00% # attempts to use FU when none available
system.cpu.iq.fu_full::IntDiv                       0      0.00%      0.00% # attempts to use FU when none available
system.cpu.iq.fu_full::FloatAdd              15351713    100.00%    100.00% # attempts to use FU when none available
system.cpu.iq.fu_full::FloatCmp                     0      0.00%    100.00% # attempts to use FU when none available
system.cpu.iq.fu_full::FloatCvt                     0      0.00%    100.00% # attempts to use FU when none available
system.cpu.iq.fu_full::FloatMult                    0      0.00%    100.00% # attempts to use FU when none available
system.cpu.iq.fu_full::FloatDiv                     0      0.00%    100.00% # attempts to use FU when none available
system.cpu.iq.fu_full::FloatSqrt                    0      0.00%    100.00% # attempts to use FU when none available
system.cpu.iq.fu_full::SimdAdd                      0      0.00%    100.00% # attempts to use FU when none available
system.cpu.iq.fu_full::SimdAddAcc                   0      0.00%    100.00% # attempts to use FU when none available
system.cpu.iq.fu_full::SimdAlu                      0      0.00%    100.00% # attempts to use FU when none available
system.cpu.iq.fu_full::SimdCmp                      0      0.00%    100.00% # attempts to use FU when none available
system.cpu.iq.fu_full::SimdCvt                      0      0.00%    100.00% # attempts to use FU when none available
system.cpu.iq.fu_full::SimdMisc                     0      0.00%    100.00% # attempts to use FU when none available
system.cpu.iq.fu_full::SimdMult                     0      0.00%    100.00% # attempts to use FU when none available
system.cpu.iq.fu_full::SimdMultAcc                  0      0.00%    100.00% # attempts to use FU when none available
system.cpu.iq.fu_full::SimdShift                    0      0.00%    100.00% # attempts to use FU when none available
system.cpu.iq.fu_full::SimdShiftAcc                 0      0.00%    100.00% # attempts to use FU when none available
system.cpu.iq.fu_full::SimdSqrt                     0      0.00%    100.00% # attempts to use FU when none available
system.cpu.iq.fu_full::SimdFloatAdd                 0      0.00%    100.00% # attempts to use FU when none available
system.cpu.iq.fu_full::SimdFloatAlu                 0      0.00%    100.00% # attempts to use FU when none available
system.cpu.iq.fu_full::SimdFloatCmp                 0      0.00%    100.00% # attempts to use FU when none available
system.cpu.iq.fu_full::SimdFloatCvt                 0      0.00%    100.00% # attempts to use FU when none available
system.cpu.iq.fu_full::SimdFloatDiv                 0      0.00%    100.00% # attempts to use FU when none available
system.cpu.iq.fu_full::SimdFloatMisc                0      0.00%    100.00% # attempts to use FU when none available
system.cpu.iq.fu_full::SimdFloatMult                0      0.00%    100.00% # attempts to use FU when none available
system.cpu.iq.fu_full::SimdFloatMultAcc             0      0.00%    100.00% # attempts to use FU when none available
system.cpu.iq.fu_full::SimdFloatSqrt                0      0.00%    100.00% # attempts to use FU when none available
system.cpu.iq.fu_full::MemRead                      0      0.00%    100.00% # attempts to use FU when none available
system.cpu.iq.fu_full::MemWrite                     0      0.00%    100.00% # attempts to use FU when none available
system.cpu.iq.fu_full::IprAccess                    0      0.00%    100.00% # attempts to use FU when none available
system.cpu.iq.fu_full::InstPrefetch                 0      0.00%    100.00% # attempts to use FU when none available
system.cpu.iq.FU_type_0::No_OpClass            410449      0.22%      0.22% # Type of FU issued
system.cpu.iq.FU_type_0::IntAlu             107904034     58.29%     58.51% # Type of FU issued
system.cpu.iq.FU_type_0::IntMult                    0      0.00%     58.51% # Type of FU issued
system.cpu.iq.FU_type_0::IntDiv                     0      0.00%     58.51% # Type of FU issued
system.cpu.iq.FU_type_0::FloatAdd            43898955     23.72%     82.23% # Type of FU issued
system.cpu.iq.FU_type_0::FloatCmp                   0      0.00%     82.23% # Type of FU issued
system.cpu.iq.FU_type_0::FloatCvt                   0      0.00%     82.23% # Type of FU issued
system.cpu.iq.FU_type_0::FloatMult                  0      0.00%     82.23% # Type of FU issued
system.cpu.iq.FU_type_0::FloatDiv                   0      0.00%     82.23% # Type of FU issued
system.cpu.iq.FU_type_0::FloatSqrt                  0      0.00%     82.23% # Type of FU issued
system.cpu.iq.FU_type_0::SimdAdd                    0      0.00%     82.23% # Type of FU issued
system.cpu.iq.FU_type_0::SimdAddAcc                 0      0.00%     82.23% # Type of FU issued
system.cpu.iq.FU_type_0::SimdAlu                    0      0.00%     82.23% # Type of FU issued
system.cpu.iq.FU_type_0::SimdCmp                    0      0.00%     82.23% # Type of FU issued
system.cpu.iq.FU_type_0::SimdCvt                    0      0.00%     82.23% # Type of FU issued
system.cpu.iq.FU_type_0::SimdMisc                   0      0.00%     82.23% # Type of FU issued
system.cpu.iq.FU_type_0::SimdMult                   0      0.00%     82.23% # Type of FU issued
system.cpu.iq.FU_type_0::SimdMultAcc                0      0.00%     82.23% # Type of FU issued
system.cpu.iq.FU_type_0::SimdShift                  0      0.00%     82.23% # Type of FU issued
system.cpu.iq.FU_type_0::SimdShiftAcc               0      0.00%     82.23% # Type of FU issued
system.cpu.iq.FU_type_0::SimdSqrt                   0      0.00%     82.23% # Type of FU issued
system.cpu.iq.FU_type_0::SimdFloatAdd               0      0.00%     82.23% # Type of FU issued
system.cpu.iq.FU_type_0::SimdFloatAlu               0      0.00%     82.23% # Type of FU issued
system.cpu.iq.FU_type_0::SimdFloatCmp               0      0.00%     82.23% # Type of FU issued
system.cpu.iq.FU_type_0::SimdFloatCvt               0      0.00%     82.23% # Type of FU issued
system.cpu.iq.FU_type_0::SimdFloatDiv               0      0.00%     82.23% # Type of FU issued
system.cpu.iq.FU_type_0::SimdFloatMisc              0      0.00%     82.23% # Type of FU issued
system.cpu.iq.FU_type_0::SimdFloatMult              0      0.00%     82.23% # Type of FU issued
system.cpu.iq.FU_type_0::SimdFloatMultAcc            0      0.00%     82.23% # Type of FU issued
system.cpu.iq.FU_type_0::SimdFloatSqrt              0      0.00%     82.23% # Type of FU issued
system.cpu.iq.FU_type_0::MemRead             21669331     11.71%     93.94% # Type of FU issued
system.cpu.iq.FU_type_0::MemWrite            11224909      6.06%    100.00% # Type of FU issued
system.cpu.iq.FU_type_0::IprAccess                  0      0.00%    100.00% # Type of FU issued
system.cpu.iq.FU_type_0::InstPrefetch               0      0.00%    100.00% # Type of FU issued
system.cpu.iq.FU_type_0::total              185107678                       # Type of FU issued
system.cpu.iq.rate                           0.817712                       # Inst issue rate
system.cpu.iq.fu_busy_cnt                    15351713                       # FU busy when requested
system.cpu.iq.fu_busy_rate                   0.082934                       # FU busy rate (busy events/executed inst)
system.cpu.iq.int_inst_queue_reads          486758473                       # Number of integer instruction queue reads
system.cpu.iq.int_inst_queue_writes         131770141                       # Number of integer instruction queue writes
system.cpu.iq.int_inst_queue_wakeup_accesses    129670742                       # Number of integer instruction queue wakeup accesses
system.cpu.iq.fp_inst_queue_reads           124576681                       # Number of floating instruction queue reads
system.cpu.iq.fp_inst_queue_writes           55058457                       # Number of floating instruction queue writes
system.cpu.iq.fp_inst_queue_wakeup_accesses     54263352                       # Number of floating instruction queue wakeup accesses
system.cpu.iq.int_alu_accesses              130095353                       # Number of integer alu accesses
system.cpu.iq.fp_alu_accesses                69953589                       # Number of floating point alu accesses
system.cpu.iew.lsq.thread0.forwLoads           724747                       # Number of loads that had data forwarded from stores
system.cpu.iew.lsq.thread0.invAddrLoads             0                       # Number of loads ignored due to an invalid address
system.cpu.iew.lsq.thread0.squashedLoads       311555                       # Number of loads squashed
system.cpu.iew.lsq.thread0.ignoredResponses            2                       # Number of memory responses ignored because the instruction is squashed
system.cpu.iew.lsq.thread0.memOrderViolation           52                       # Number of memory ordering violations
system.cpu.iew.lsq.thread0.squashedStores       189769                       # Number of stores squashed
system.cpu.iew.lsq.thread0.invAddrSwpfs             0                       # Number of software prefetches ignored due to an invalid address
system.cpu.iew.lsq.thread0.blockedLoads             0                       # Number of blocked loads due to partial load-store forwarding
system.cpu.iew.lsq.thread0.rescheduledLoads            0                       # Number of loads that were rescheduled
system.cpu.iew.lsq.thread0.cacheBlocked             0                       # Number of times an access to memory failed due to the cache being blocked
system.cpu.iew.iewIdleCycles                        0                       # Number of cycles IEW is idle
system.cpu.iew.iewSquashCycles                1113487                       # Number of cycles IEW is squashing
system.cpu.iew.iewBlockCycles                 3028868                       # Number of cycles IEW is blocking
system.cpu.iew.iewUnblockCycles               3060578                       # Number of cycles IEW is unblocking
system.cpu.iew.iewDispatchedInsts           185516263                       # Number of instructions dispatched to IQ
system.cpu.iew.iewDispSquashedInsts           1092797                       # Number of squashed instructions skipped by dispatch
system.cpu.iew.iewDispLoadInsts              21741674                       # Number of dispatched load instructions
system.cpu.iew.iewDispStoreInsts             11315360                       # Number of dispatched store instructions
system.cpu.iew.iewDispNonSpecInsts                 99                       # Number of dispatched non-speculative instructions
system.cpu.iew.iewIQFullEvents                2899618                       # Number of times the IQ has become full, causing a stall
system.cpu.iew.iewLSQFullEvents                     0                       # Number of times the LSQ has become full, causing a stall
system.cpu.iew.memOrderViolationEvents             52                       # Number of memory order violations
system.cpu.iew.predictedTakenIncorrect         636561                       # Number of branches that were predicted taken incorrectly
system.cpu.iew.predictedNotTakenIncorrect       472284                       # Number of branches that were predicted not taken incorrectly
system.cpu.iew.branchMispredicts              1108845                       # Number of branch mispredicts detected at execute
system.cpu.iew.iewExecutedInsts             184009749                       # Number of executed instructions
system.cpu.iew.iewExecLoadInsts              21525464                       # Number of load instructions executed
system.cpu.iew.iewExecSquashedInsts           1097927                       # Number of squashed instructions skipped in execute
system.cpu.iew.exec_swp                             0                       # number of swp insts executed
system.cpu.iew.exec_nop                             0                       # number of nop insts executed
system.cpu.iew.exec_refs                     32733436                       # number of memory reference insts executed
system.cpu.iew.exec_branches                 16479779                       # Number of branches executed
system.cpu.iew.exec_stores                   11207972                       # Number of stores executed
system.cpu.iew.exec_rate                     0.812862                       # Inst execution rate
system.cpu.iew.wb_sent                      183934245                       # cumulative count of insts sent to commit
system.cpu.iew.wb_count                     183934094                       # cumulative count of insts written-back
system.cpu.iew.wb_producers                  70941671                       # num instructions producing a value
system.cpu.iew.wb_consumers                  95288439                       # num instructions consuming a value
system.cpu.iew.wb_penalized                         0                       # number of instrctions required to write to 'other' IQ
system.cpu.iew.wb_rate                       0.812528                       # insts written-back per cycle
system.cpu.iew.wb_fanout                     0.744494                       # average fanout of values written-back
system.cpu.iew.wb_penalized_rate                    0                       # fraction of instructions written-back that wrote to 'other' IQ
system.cpu.commit.commitSquashedInsts         2477552                       # The number of squashed insts skipped by commit
system.cpu.commit.commitNonSpecStalls              86                       # The number of times commit has been forced to stall to communicate backwards
system.cpu.commit.branchMispredicts           1108838                       # The number of times a branch was mispredicted
system.cpu.commit.committed_per_cycle::samples    224633383                       # Number of insts commited each cycle
system.cpu.commit.committed_per_cycle::mean     0.814849                       # Number of insts commited each cycle
system.cpu.commit.committed_per_cycle::stdev     0.953874                       # Number of insts commited each cycle
system.cpu.commit.committed_per_cycle::underflows            0      0.00%      0.00% # Number of insts commited each cycle
system.cpu.commit.committed_per_cycle::0    103844431     46.23%     46.23% # Number of insts commited each cycle
system.cpu.commit.committed_per_cycle::1     78672324     35.02%     81.25% # Number of insts commited each cycle
system.cpu.commit.committed_per_cycle::2     24838761     11.06%     92.31% # Number of insts commited each cycle
system.cpu.commit.committed_per_cycle::3     14418992      6.42%     98.73% # Number of insts commited each cycle
system.cpu.commit.committed_per_cycle::4      2858875      1.27%    100.00% # Number of insts commited each cycle
system.cpu.commit.committed_per_cycle::overflows            0      0.00%    100.00% # Number of insts commited each cycle
system.cpu.commit.committed_per_cycle::min_value            0                       # Number of insts commited each cycle
system.cpu.commit.committed_per_cycle::max_value            4                       # Number of insts commited each cycle
system.cpu.commit.committed_per_cycle::total    224633383                       # Number of insts commited each cycle
system.cpu.commit.committedInsts            100000000                       # Number of instructions committed
system.cpu.commit.committedOps              183042322                       # Number of ops (including micro ops) committed
system.cpu.commit.swp_count                         0                       # Number of s/w prefetches committed
system.cpu.commit.refs                       32555709                       # Number of memory references committed
system.cpu.commit.loads                      21430118                       # Number of loads committed
system.cpu.commit.membars                           0                       # Number of memory barriers committed
system.cpu.commit.branches                   16476661                       # Number of branches committed
system.cpu.commit.fp_insts                   54185383                       # Number of committed floating point instructions.
system.cpu.commit.int_insts                 140801029                       # Number of committed integer instructions.
system.cpu.commit.function_calls                    0                       # Number of function calls committed.
system.cpu.commit.bw_lim_events               2858875                       # number cycles where commit BW limit reached
system.cpu.commit.bw_limited                        0                       # number of insts not committed due to BW limits
system.cpu.rob.rob_reads                    407294382                       # The number of ROB reads
system.cpu.rob.rob_writes                   372153237                       # The number of ROB writes
system.cpu.timesIdled                           94648                       # Number of times that the entire CPU went into an idle state and unscheduled itself
system.cpu.idleCycles                          625858                       # Total number of cycles that the CPU has spent unscheduled due to idling
system.cpu.committedInsts                   100000000                       # Number of Instructions Simulated
system.cpu.committedOps                     183042322                       # Number of Ops (including micro ops) Simulated
system.cpu.committedInsts_total             100000000                       # Number of Instructions Simulated
system.cpu.cpi                               2.263727                       # CPI: Cycles Per Instruction
system.cpu.cpi_total                         2.263727                       # CPI: Total CPI of All Threads
system.cpu.ipc                               0.441749                       # IPC: Instructions Per Cycle
system.cpu.ipc_total                         0.441749                       # IPC: Total IPC of All Threads
system.cpu.int_regfile_reads                276647871                       # number of integer regfile reads
system.cpu.int_regfile_writes               152811538                       # number of integer regfile writes
system.cpu.fp_regfile_reads                  94232860                       # number of floating regfile reads
system.cpu.fp_regfile_writes                 49953921                       # number of floating regfile writes
system.cpu.misc_regfile_reads                69212440                       # number of misc regfile reads
system.cpu.misc_regfile_writes                     61                       # number of misc regfile writes
system.cpu.itb_walker_cache.replacements            0                       # number of replacements
system.cpu.itb_walker_cache.tagsinuse               0                       # Cycle average of tags in use
system.cpu.itb_walker_cache.total_refs              0                       # Total number of references to valid blocks.
system.cpu.itb_walker_cache.sampled_refs            0                       # Sample count of references to valid blocks.
system.cpu.itb_walker_cache.avg_refs              nan                       # Average number of references to valid blocks.
system.cpu.itb_walker_cache.warmup_cycle            0                       # Cycle when the warmup percentage was hit.
system.cpu.itb_walker_cache.blocked_cycles::no_mshrs            0                       # number of cycles access was blocked
system.cpu.itb_walker_cache.blocked_cycles::no_targets            0                       # number of cycles access was blocked
system.cpu.itb_walker_cache.blocked::no_mshrs            0                       # number of cycles access was blocked
system.cpu.itb_walker_cache.blocked::no_targets            0                       # number of cycles access was blocked
system.cpu.itb_walker_cache.avg_blocked_cycles::no_mshrs          nan                       # average number of cycles each access was blocked
system.cpu.itb_walker_cache.avg_blocked_cycles::no_targets          nan                       # average number of cycles each access was blocked
system.cpu.itb_walker_cache.fast_writes             0                       # number of fast writes performed
system.cpu.itb_walker_cache.cache_copies            0                       # number of cache copies performed
system.cpu.itb_walker_cache.no_allocate_misses            0                       # Number of misses that were no-allocate
system.cpu.dtb_walker_cache.replacements            0                       # number of replacements
system.cpu.dtb_walker_cache.tagsinuse               0                       # Cycle average of tags in use
system.cpu.dtb_walker_cache.total_refs              0                       # Total number of references to valid blocks.
system.cpu.dtb_walker_cache.sampled_refs            0                       # Sample count of references to valid blocks.
system.cpu.dtb_walker_cache.avg_refs              nan                       # Average number of references to valid blocks.
system.cpu.dtb_walker_cache.warmup_cycle            0                       # Cycle when the warmup percentage was hit.
system.cpu.dtb_walker_cache.blocked_cycles::no_mshrs            0                       # number of cycles access was blocked
system.cpu.dtb_walker_cache.blocked_cycles::no_targets            0                       # number of cycles access was blocked
system.cpu.dtb_walker_cache.blocked::no_mshrs            0                       # number of cycles access was blocked
system.cpu.dtb_walker_cache.blocked::no_targets            0                       # number of cycles access was blocked
system.cpu.dtb_walker_cache.avg_blocked_cycles::no_mshrs          nan                       # average number of cycles each access was blocked
system.cpu.dtb_walker_cache.avg_blocked_cycles::no_targets          nan                       # average number of cycles each access was blocked
system.cpu.dtb_walker_cache.fast_writes             0                       # number of fast writes performed
system.cpu.dtb_walker_cache.cache_copies            0                       # number of cache copies performed
system.cpu.dtb_walker_cache.no_allocate_misses            0                       # Number of misses that were no-allocate
system.cpu.icache.replacements                  67377                       # number of replacements
system.cpu.icache.tagsinuse                431.378355                       # Cycle average of tags in use
system.cpu.icache.total_refs                 14598761                       # Total number of references to valid blocks.
system.cpu.icache.sampled_refs                  67865                       # Sample count of references to valid blocks.
system.cpu.icache.avg_refs                 215.114728                       # Average number of references to valid blocks.
system.cpu.icache.warmup_cycle                      0                       # Cycle when the warmup percentage was hit.
system.cpu.icache.occ_blocks::cpu.inst     431.378355                       # Average occupied blocks per requestor
system.cpu.icache.occ_percent::cpu.inst      0.842536                       # Average percentage of cache occupancy
system.cpu.icache.occ_percent::total         0.842536                       # Average percentage of cache occupancy
system.cpu.icache.ReadReq_hits::cpu.inst     14598761                       # number of ReadReq hits
system.cpu.icache.ReadReq_hits::total        14598761                       # number of ReadReq hits
system.cpu.icache.demand_hits::cpu.inst      14598761                       # number of demand (read+write) hits
system.cpu.icache.demand_hits::total         14598761                       # number of demand (read+write) hits
system.cpu.icache.overall_hits::cpu.inst     14598761                       # number of overall hits
system.cpu.icache.overall_hits::total        14598761                       # number of overall hits
system.cpu.icache.ReadReq_misses::cpu.inst        67928                       # number of ReadReq misses
system.cpu.icache.ReadReq_misses::total         67928                       # number of ReadReq misses
system.cpu.icache.demand_misses::cpu.inst        67928                       # number of demand (read+write) misses
system.cpu.icache.demand_misses::total          67928                       # number of demand (read+write) misses
system.cpu.icache.overall_misses::cpu.inst        67928                       # number of overall misses
system.cpu.icache.overall_misses::total         67928                       # number of overall misses
system.cpu.icache.ReadReq_miss_latency::cpu.inst    918893500                       # number of ReadReq miss cycles
system.cpu.icache.ReadReq_miss_latency::total    918893500                       # number of ReadReq miss cycles
system.cpu.icache.demand_miss_latency::cpu.inst    918893500                       # number of demand (read+write) miss cycles
system.cpu.icache.demand_miss_latency::total    918893500                       # number of demand (read+write) miss cycles
system.cpu.icache.overall_miss_latency::cpu.inst    918893500                       # number of overall miss cycles
system.cpu.icache.overall_miss_latency::total    918893500                       # number of overall miss cycles
system.cpu.icache.ReadReq_accesses::cpu.inst     14666689                       # number of ReadReq accesses(hits+misses)
system.cpu.icache.ReadReq_accesses::total     14666689                       # number of ReadReq accesses(hits+misses)
system.cpu.icache.demand_accesses::cpu.inst     14666689                       # number of demand (read+write) accesses
system.cpu.icache.demand_accesses::total     14666689                       # number of demand (read+write) accesses
system.cpu.icache.overall_accesses::cpu.inst     14666689                       # number of overall (read+write) accesses
system.cpu.icache.overall_accesses::total     14666689                       # number of overall (read+write) accesses
system.cpu.icache.ReadReq_miss_rate::cpu.inst     0.004631                       # miss rate for ReadReq accesses
system.cpu.icache.ReadReq_miss_rate::total     0.004631                       # miss rate for ReadReq accesses
system.cpu.icache.demand_miss_rate::cpu.inst     0.004631                       # miss rate for demand accesses
system.cpu.icache.demand_miss_rate::total     0.004631                       # miss rate for demand accesses
system.cpu.icache.overall_miss_rate::cpu.inst     0.004631                       # miss rate for overall accesses
system.cpu.icache.overall_miss_rate::total     0.004631                       # miss rate for overall accesses
system.cpu.icache.ReadReq_avg_miss_latency::cpu.inst 13527.462902                       # average ReadReq miss latency
system.cpu.icache.ReadReq_avg_miss_latency::total 13527.462902                       # average ReadReq miss latency
system.cpu.icache.demand_avg_miss_latency::cpu.inst 13527.462902                       # average overall miss latency
system.cpu.icache.demand_avg_miss_latency::total 13527.462902                       # average overall miss latency
system.cpu.icache.overall_avg_miss_latency::cpu.inst 13527.462902                       # average overall miss latency
system.cpu.icache.overall_avg_miss_latency::total 13527.462902                       # average overall miss latency
system.cpu.icache.blocked_cycles::no_mshrs           57                       # number of cycles access was blocked
system.cpu.icache.blocked_cycles::no_targets            0                       # number of cycles access was blocked
system.cpu.icache.blocked::no_mshrs                 1                       # number of cycles access was blocked
system.cpu.icache.blocked::no_targets               0                       # number of cycles access was blocked
system.cpu.icache.avg_blocked_cycles::no_mshrs           57                       # average number of cycles each access was blocked
system.cpu.icache.avg_blocked_cycles::no_targets          nan                       # average number of cycles each access was blocked
system.cpu.icache.fast_writes                       0                       # number of fast writes performed
system.cpu.icache.cache_copies                      0                       # number of cache copies performed
system.cpu.icache.ReadReq_mshr_hits::cpu.inst           63                       # number of ReadReq MSHR hits
system.cpu.icache.ReadReq_mshr_hits::total           63                       # number of ReadReq MSHR hits
system.cpu.icache.demand_mshr_hits::cpu.inst           63                       # number of demand (read+write) MSHR hits
system.cpu.icache.demand_mshr_hits::total           63                       # number of demand (read+write) MSHR hits
system.cpu.icache.overall_mshr_hits::cpu.inst           63                       # number of overall MSHR hits
system.cpu.icache.overall_mshr_hits::total           63                       # number of overall MSHR hits
system.cpu.icache.ReadReq_mshr_misses::cpu.inst        67865                       # number of ReadReq MSHR misses
system.cpu.icache.ReadReq_mshr_misses::total        67865                       # number of ReadReq MSHR misses
system.cpu.icache.demand_mshr_misses::cpu.inst        67865                       # number of demand (read+write) MSHR misses
system.cpu.icache.demand_mshr_misses::total        67865                       # number of demand (read+write) MSHR misses
system.cpu.icache.overall_mshr_misses::cpu.inst        67865                       # number of overall MSHR misses
system.cpu.icache.overall_mshr_misses::total        67865                       # number of overall MSHR misses
system.cpu.icache.ReadReq_mshr_miss_latency::cpu.inst    780227000                       # number of ReadReq MSHR miss cycles
system.cpu.icache.ReadReq_mshr_miss_latency::total    780227000                       # number of ReadReq MSHR miss cycles
system.cpu.icache.demand_mshr_miss_latency::cpu.inst    780227000                       # number of demand (read+write) MSHR miss cycles
system.cpu.icache.demand_mshr_miss_latency::total    780227000                       # number of demand (read+write) MSHR miss cycles
system.cpu.icache.overall_mshr_miss_latency::cpu.inst    780227000                       # number of overall MSHR miss cycles
system.cpu.icache.overall_mshr_miss_latency::total    780227000                       # number of overall MSHR miss cycles
system.cpu.icache.ReadReq_mshr_miss_rate::cpu.inst     0.004627                       # mshr miss rate for ReadReq accesses
system.cpu.icache.ReadReq_mshr_miss_rate::total     0.004627                       # mshr miss rate for ReadReq accesses
system.cpu.icache.demand_mshr_miss_rate::cpu.inst     0.004627                       # mshr miss rate for demand accesses
system.cpu.icache.demand_mshr_miss_rate::total     0.004627                       # mshr miss rate for demand accesses
system.cpu.icache.overall_mshr_miss_rate::cpu.inst     0.004627                       # mshr miss rate for overall accesses
system.cpu.icache.overall_mshr_miss_rate::total     0.004627                       # mshr miss rate for overall accesses
system.cpu.icache.ReadReq_avg_mshr_miss_latency::cpu.inst 11496.750903                       # average ReadReq mshr miss latency
system.cpu.icache.ReadReq_avg_mshr_miss_latency::total 11496.750903                       # average ReadReq mshr miss latency
system.cpu.icache.demand_avg_mshr_miss_latency::cpu.inst 11496.750903                       # average overall mshr miss latency
system.cpu.icache.demand_avg_mshr_miss_latency::total 11496.750903                       # average overall mshr miss latency
system.cpu.icache.overall_avg_mshr_miss_latency::cpu.inst 11496.750903                       # average overall mshr miss latency
system.cpu.icache.overall_avg_mshr_miss_latency::total 11496.750903                       # average overall mshr miss latency
system.cpu.icache.no_allocate_misses                0                       # Number of misses that were no-allocate
system.cpu.dcache.replacements                 142430                       # number of replacements
system.cpu.dcache.tagsinuse                503.588288                       # Cycle average of tags in use
system.cpu.dcache.total_refs                 31815890                       # Total number of references to valid blocks.
system.cpu.dcache.sampled_refs                 142942                       # Sample count of references to valid blocks.
system.cpu.dcache.avg_refs                 222.579018                       # Average number of references to valid blocks.
system.cpu.dcache.warmup_cycle             7721744000                       # Cycle when the warmup percentage was hit.
system.cpu.dcache.occ_blocks::cpu.data     503.588288                       # Average occupied blocks per requestor
system.cpu.dcache.occ_percent::cpu.data      0.983571                       # Average percentage of cache occupancy
system.cpu.dcache.occ_percent::total         0.983571                       # Average percentage of cache occupancy
system.cpu.dcache.ReadReq_hits::cpu.data     20761509                       # number of ReadReq hits
system.cpu.dcache.ReadReq_hits::total        20761509                       # number of ReadReq hits
system.cpu.dcache.WriteReq_hits::cpu.data     11054381                       # number of WriteReq hits
system.cpu.dcache.WriteReq_hits::total       11054381                       # number of WriteReq hits
system.cpu.dcache.demand_hits::cpu.data      31815890                       # number of demand (read+write) hits
system.cpu.dcache.demand_hits::total         31815890                       # number of demand (read+write) hits
system.cpu.dcache.overall_hits::cpu.data     31815890                       # number of overall hits
system.cpu.dcache.overall_hits::total        31815890                       # number of overall hits
system.cpu.dcache.ReadReq_misses::cpu.data        71958                       # number of ReadReq misses
system.cpu.dcache.ReadReq_misses::total         71958                       # number of ReadReq misses
system.cpu.dcache.WriteReq_misses::cpu.data        71210                       # number of WriteReq misses
system.cpu.dcache.WriteReq_misses::total        71210                       # number of WriteReq misses
system.cpu.dcache.demand_misses::cpu.data       143168                       # number of demand (read+write) misses
system.cpu.dcache.demand_misses::total         143168                       # number of demand (read+write) misses
system.cpu.dcache.overall_misses::cpu.data       143168                       # number of overall misses
system.cpu.dcache.overall_misses::total        143168                       # number of overall misses
system.cpu.dcache.ReadReq_miss_latency::cpu.data   1215763500                       # number of ReadReq miss cycles
system.cpu.dcache.ReadReq_miss_latency::total   1215763500                       # number of ReadReq miss cycles
system.cpu.dcache.WriteReq_miss_latency::cpu.data   1765078500                       # number of WriteReq miss cycles
system.cpu.dcache.WriteReq_miss_latency::total   1765078500                       # number of WriteReq miss cycles
system.cpu.dcache.demand_miss_latency::cpu.data   2980842000                       # number of demand (read+write) miss cycles
system.cpu.dcache.demand_miss_latency::total   2980842000                       # number of demand (read+write) miss cycles
system.cpu.dcache.overall_miss_latency::cpu.data   2980842000                       # number of overall miss cycles
system.cpu.dcache.overall_miss_latency::total   2980842000                       # number of overall miss cycles
system.cpu.dcache.ReadReq_accesses::cpu.data     20833467                       # number of ReadReq accesses(hits+misses)
system.cpu.dcache.ReadReq_accesses::total     20833467                       # number of ReadReq accesses(hits+misses)
system.cpu.dcache.WriteReq_accesses::cpu.data     11125591                       # number of WriteReq accesses(hits+misses)
system.cpu.dcache.WriteReq_accesses::total     11125591                       # number of WriteReq accesses(hits+misses)
system.cpu.dcache.demand_accesses::cpu.data     31959058                       # number of demand (read+write) accesses
system.cpu.dcache.demand_accesses::total     31959058                       # number of demand (read+write) accesses
system.cpu.dcache.overall_accesses::cpu.data     31959058                       # number of overall (read+write) accesses
system.cpu.dcache.overall_accesses::total     31959058                       # number of overall (read+write) accesses
system.cpu.dcache.ReadReq_miss_rate::cpu.data     0.003454                       # miss rate for ReadReq accesses
system.cpu.dcache.ReadReq_miss_rate::total     0.003454                       # miss rate for ReadReq accesses
system.cpu.dcache.WriteReq_miss_rate::cpu.data     0.006401                       # miss rate for WriteReq accesses
system.cpu.dcache.WriteReq_miss_rate::total     0.006401                       # miss rate for WriteReq accesses
system.cpu.dcache.demand_miss_rate::cpu.data     0.004480                       # miss rate for demand accesses
system.cpu.dcache.demand_miss_rate::total     0.004480                       # miss rate for demand accesses
system.cpu.dcache.overall_miss_rate::cpu.data     0.004480                       # miss rate for overall accesses
system.cpu.dcache.overall_miss_rate::total     0.004480                       # miss rate for overall accesses
system.cpu.dcache.ReadReq_avg_miss_latency::cpu.data 16895.459852                       # average ReadReq miss latency
system.cpu.dcache.ReadReq_avg_miss_latency::total 16895.459852                       # average ReadReq miss latency
system.cpu.dcache.WriteReq_avg_miss_latency::cpu.data 24786.947058                       # average WriteReq miss latency
system.cpu.dcache.WriteReq_avg_miss_latency::total 24786.947058                       # average WriteReq miss latency
system.cpu.dcache.demand_avg_miss_latency::cpu.data 20820.588400                       # average overall miss latency
system.cpu.dcache.demand_avg_miss_latency::total 20820.588400                       # average overall miss latency
system.cpu.dcache.overall_avg_miss_latency::cpu.data 20820.588400                       # average overall miss latency
system.cpu.dcache.overall_avg_miss_latency::total 20820.588400                       # average overall miss latency
system.cpu.dcache.blocked_cycles::no_mshrs           46                       # number of cycles access was blocked
system.cpu.dcache.blocked_cycles::no_targets            0                       # number of cycles access was blocked
system.cpu.dcache.blocked::no_mshrs                 2                       # number of cycles access was blocked
system.cpu.dcache.blocked::no_targets               0                       # number of cycles access was blocked
system.cpu.dcache.avg_blocked_cycles::no_mshrs           23                       # average number of cycles each access was blocked
system.cpu.dcache.avg_blocked_cycles::no_targets          nan                       # average number of cycles each access was blocked
system.cpu.dcache.fast_writes                       0                       # number of fast writes performed
system.cpu.dcache.cache_copies                      0                       # number of cache copies performed
system.cpu.dcache.writebacks::writebacks       138027                       # number of writebacks
system.cpu.dcache.writebacks::total            138027                       # number of writebacks
system.cpu.dcache.ReadReq_mshr_hits::cpu.data          219                       # number of ReadReq MSHR hits
system.cpu.dcache.ReadReq_mshr_hits::total          219                       # number of ReadReq MSHR hits
system.cpu.dcache.WriteReq_mshr_hits::cpu.data            7                       # number of WriteReq MSHR hits
system.cpu.dcache.WriteReq_mshr_hits::total            7                       # number of WriteReq MSHR hits
system.cpu.dcache.demand_mshr_hits::cpu.data          226                       # number of demand (read+write) MSHR hits
system.cpu.dcache.demand_mshr_hits::total          226                       # number of demand (read+write) MSHR hits
system.cpu.dcache.overall_mshr_hits::cpu.data          226                       # number of overall MSHR hits
system.cpu.dcache.overall_mshr_hits::total          226                       # number of overall MSHR hits
system.cpu.dcache.ReadReq_mshr_misses::cpu.data        71739                       # number of ReadReq MSHR misses
system.cpu.dcache.ReadReq_mshr_misses::total        71739                       # number of ReadReq MSHR misses
system.cpu.dcache.WriteReq_mshr_misses::cpu.data        71203                       # number of WriteReq MSHR misses
system.cpu.dcache.WriteReq_mshr_misses::total        71203                       # number of WriteReq MSHR misses
system.cpu.dcache.demand_mshr_misses::cpu.data       142942                       # number of demand (read+write) MSHR misses
system.cpu.dcache.demand_mshr_misses::total       142942                       # number of demand (read+write) MSHR misses
system.cpu.dcache.overall_mshr_misses::cpu.data       142942                       # number of overall MSHR misses
system.cpu.dcache.overall_mshr_misses::total       142942                       # number of overall MSHR misses
system.cpu.dcache.ReadReq_mshr_miss_latency::cpu.data   1063461000                       # number of ReadReq MSHR miss cycles
system.cpu.dcache.ReadReq_mshr_miss_latency::total   1063461000                       # number of ReadReq MSHR miss cycles
system.cpu.dcache.WriteReq_mshr_miss_latency::cpu.data   1622310000                       # number of WriteReq MSHR miss cycles
system.cpu.dcache.WriteReq_mshr_miss_latency::total   1622310000                       # number of WriteReq MSHR miss cycles
system.cpu.dcache.demand_mshr_miss_latency::cpu.data   2685771000                       # number of demand (read+write) MSHR miss cycles
system.cpu.dcache.demand_mshr_miss_latency::total   2685771000                       # number of demand (read+write) MSHR miss cycles
system.cpu.dcache.overall_mshr_miss_latency::cpu.data   2685771000                       # number of overall MSHR miss cycles
system.cpu.dcache.overall_mshr_miss_latency::total   2685771000                       # number of overall MSHR miss cycles
system.cpu.dcache.ReadReq_mshr_miss_rate::cpu.data     0.003443                       # mshr miss rate for ReadReq accesses
system.cpu.dcache.ReadReq_mshr_miss_rate::total     0.003443                       # mshr miss rate for ReadReq accesses
system.cpu.dcache.WriteReq_mshr_miss_rate::cpu.data     0.006400                       # mshr miss rate for WriteReq accesses
system.cpu.dcache.WriteReq_mshr_miss_rate::total     0.006400                       # mshr miss rate for WriteReq accesses
system.cpu.dcache.demand_mshr_miss_rate::cpu.data     0.004473                       # mshr miss rate for demand accesses
system.cpu.dcache.demand_mshr_miss_rate::total     0.004473                       # mshr miss rate for demand accesses
system.cpu.dcache.overall_mshr_miss_rate::cpu.data     0.004473                       # mshr miss rate for overall accesses
system.cpu.dcache.overall_mshr_miss_rate::total     0.004473                       # mshr miss rate for overall accesses
system.cpu.dcache.ReadReq_avg_mshr_miss_latency::cpu.data 14824.028771                       # average ReadReq mshr miss latency
system.cpu.dcache.ReadReq_avg_mshr_miss_latency::total 14824.028771                       # average ReadReq mshr miss latency
system.cpu.dcache.WriteReq_avg_mshr_miss_latency::cpu.data 22784.292797                       # average WriteReq mshr miss latency
system.cpu.dcache.WriteReq_avg_mshr_miss_latency::total 22784.292797                       # average WriteReq mshr miss latency
system.cpu.dcache.demand_avg_mshr_miss_latency::cpu.data 18789.236194                       # average overall mshr miss latency
system.cpu.dcache.demand_avg_mshr_miss_latency::total 18789.236194                       # average overall mshr miss latency
system.cpu.dcache.overall_avg_mshr_miss_latency::cpu.data 18789.236194                       # average overall mshr miss latency
system.cpu.dcache.overall_avg_mshr_miss_latency::total 18789.236194                       # average overall mshr miss latency
system.cpu.dcache.no_allocate_misses                0                       # Number of misses that were no-allocate

---------- End Simulation Statistics   ----------
