
---------- Begin Simulation Statistics ----------
sim_seconds                                  0.018090                       # Number of seconds simulated
sim_ticks                                 18089538000                       # Number of ticks simulated
final_tick                                18089538000                       # Number of ticks from beginning of simulation (restored from checkpoints and never reset)
sim_freq                                 1000000000000                       # Frequency of simulated ticks
host_inst_rate                                  19825                       # Simulator instruction rate (inst/s)
host_op_rate                                    42066                       # Simulator op (including micro ops) rate (op/s)
host_tick_rate                               95775575                       # Simulator tick rate (ticks/s)
host_mem_usage                                2210228                       # Number of bytes of host memory used
host_seconds                                   188.87                       # Real time elapsed on the host
sim_insts                                     3744478                       # Number of instructions simulated
sim_ops                                       7945257                       # Number of ops (including micro ops) simulated
system.physmem.bytes_read::cpu.inst             24320                       # Number of bytes read from this memory
system.physmem.bytes_read::cpu.data             60544                       # Number of bytes read from this memory
system.physmem.bytes_read::total                84864                       # Number of bytes read from this memory
system.physmem.bytes_inst_read::cpu.inst        24320                       # Number of instructions bytes read from this memory
system.physmem.bytes_inst_read::total           24320                       # Number of instructions bytes read from this memory
system.physmem.num_reads::cpu.inst                380                       # Number of read requests responded to by this memory
system.physmem.num_reads::cpu.data                946                       # Number of read requests responded to by this memory
system.physmem.num_reads::total                  1326                       # Number of read requests responded to by this memory
system.physmem.bw_read::cpu.inst              1344424                       # Total read bandwidth from this memory (bytes/s)
system.physmem.bw_read::cpu.data              3346907                       # Total read bandwidth from this memory (bytes/s)
system.physmem.bw_read::total                 4691330                       # Total read bandwidth from this memory (bytes/s)
system.physmem.bw_inst_read::cpu.inst         1344424                       # Instruction read bandwidth from this memory (bytes/s)
system.physmem.bw_inst_read::total            1344424                       # Instruction read bandwidth from this memory (bytes/s)
system.physmem.bw_total::cpu.inst             1344424                       # Total bandwidth to/from this memory (bytes/s)
system.physmem.bw_total::cpu.data             3346907                       # Total bandwidth to/from this memory (bytes/s)
system.physmem.bw_total::total                4691330                       # Total bandwidth to/from this memory (bytes/s)
system.l2.replacements                              0                       # number of replacements
system.l2.tagsinuse                       1186.475611                       # Cycle average of tags in use
system.l2.total_refs                            35755                       # Total number of references to valid blocks.
system.l2.sampled_refs                           1274                       # Sample count of references to valid blocks.
system.l2.avg_refs                          28.065149                       # Average number of references to valid blocks.
system.l2.warmup_cycle                              0                       # Cycle when the warmup percentage was hit.
system.l2.occ_blocks::writebacks           366.397580                       # Average occupied blocks per requestor
system.l2.occ_blocks::cpu.inst             340.830625                       # Average occupied blocks per requestor
system.l2.occ_blocks::cpu.data             479.247407                       # Average occupied blocks per requestor
system.l2.occ_percent::writebacks            0.089453                       # Average percentage of cache occupancy
system.l2.occ_percent::cpu.inst              0.083211                       # Average percentage of cache occupancy
system.l2.occ_percent::cpu.data              0.117004                       # Average percentage of cache occupancy
system.l2.occ_percent::total                 0.289667                       # Average percentage of cache occupancy
system.l2.ReadReq_hits::cpu.inst                27775                       # number of ReadReq hits
system.l2.ReadReq_hits::cpu.data                 3528                       # number of ReadReq hits
system.l2.ReadReq_hits::total                   31303                       # number of ReadReq hits
system.l2.Writeback_hits::writebacks             4877                       # number of Writeback hits
system.l2.Writeback_hits::total                  4877                       # number of Writeback hits
system.l2.ReadExReq_hits::cpu.data               1436                       # number of ReadExReq hits
system.l2.ReadExReq_hits::total                  1436                       # number of ReadExReq hits
system.l2.demand_hits::cpu.inst                 27775                       # number of demand (read+write) hits
system.l2.demand_hits::cpu.data                  4964                       # number of demand (read+write) hits
system.l2.demand_hits::total                    32739                       # number of demand (read+write) hits
system.l2.overall_hits::cpu.inst                27775                       # number of overall hits
system.l2.overall_hits::cpu.data                 4964                       # number of overall hits
system.l2.overall_hits::total                   32739                       # number of overall hits
system.l2.ReadReq_misses::cpu.inst                380                       # number of ReadReq misses
system.l2.ReadReq_misses::cpu.data                496                       # number of ReadReq misses
system.l2.ReadReq_misses::total                   876                       # number of ReadReq misses
system.l2.ReadExReq_misses::cpu.data              450                       # number of ReadExReq misses
system.l2.ReadExReq_misses::total                 450                       # number of ReadExReq misses
system.l2.demand_misses::cpu.inst                 380                       # number of demand (read+write) misses
system.l2.demand_misses::cpu.data                 946                       # number of demand (read+write) misses
system.l2.demand_misses::total                   1326                       # number of demand (read+write) misses
system.l2.overall_misses::cpu.inst                380                       # number of overall misses
system.l2.overall_misses::cpu.data                946                       # number of overall misses
system.l2.overall_misses::total                  1326                       # number of overall misses
system.l2.ReadReq_miss_latency::cpu.inst     19980000                       # number of ReadReq miss cycles
system.l2.ReadReq_miss_latency::cpu.data     25871500                       # number of ReadReq miss cycles
system.l2.ReadReq_miss_latency::total        45851500                       # number of ReadReq miss cycles
system.l2.ReadExReq_miss_latency::cpu.data     23437500                       # number of ReadExReq miss cycles
system.l2.ReadExReq_miss_latency::total      23437500                       # number of ReadExReq miss cycles
system.l2.demand_miss_latency::cpu.inst      19980000                       # number of demand (read+write) miss cycles
system.l2.demand_miss_latency::cpu.data      49309000                       # number of demand (read+write) miss cycles
system.l2.demand_miss_latency::total         69289000                       # number of demand (read+write) miss cycles
system.l2.overall_miss_latency::cpu.inst     19980000                       # number of overall miss cycles
system.l2.overall_miss_latency::cpu.data     49309000                       # number of overall miss cycles
system.l2.overall_miss_latency::total        69289000                       # number of overall miss cycles
system.l2.ReadReq_accesses::cpu.inst            28155                       # number of ReadReq accesses(hits+misses)
system.l2.ReadReq_accesses::cpu.data             4024                       # number of ReadReq accesses(hits+misses)
system.l2.ReadReq_accesses::total               32179                       # number of ReadReq accesses(hits+misses)
system.l2.Writeback_accesses::writebacks         4877                       # number of Writeback accesses(hits+misses)
system.l2.Writeback_accesses::total              4877                       # number of Writeback accesses(hits+misses)
system.l2.ReadExReq_accesses::cpu.data           1886                       # number of ReadExReq accesses(hits+misses)
system.l2.ReadExReq_accesses::total              1886                       # number of ReadExReq accesses(hits+misses)
system.l2.demand_accesses::cpu.inst             28155                       # number of demand (read+write) accesses
system.l2.demand_accesses::cpu.data              5910                       # number of demand (read+write) accesses
system.l2.demand_accesses::total                34065                       # number of demand (read+write) accesses
system.l2.overall_accesses::cpu.inst            28155                       # number of overall (read+write) accesses
system.l2.overall_accesses::cpu.data             5910                       # number of overall (read+write) accesses
system.l2.overall_accesses::total               34065                       # number of overall (read+write) accesses
system.l2.ReadReq_miss_rate::cpu.inst        0.013497                       # miss rate for ReadReq accesses
system.l2.ReadReq_miss_rate::cpu.data        0.123260                       # miss rate for ReadReq accesses
system.l2.ReadReq_miss_rate::total           0.027223                       # miss rate for ReadReq accesses
system.l2.ReadExReq_miss_rate::cpu.data      0.238600                       # miss rate for ReadExReq accesses
system.l2.ReadExReq_miss_rate::total         0.238600                       # miss rate for ReadExReq accesses
system.l2.demand_miss_rate::cpu.inst         0.013497                       # miss rate for demand accesses
system.l2.demand_miss_rate::cpu.data         0.160068                       # miss rate for demand accesses
system.l2.demand_miss_rate::total            0.038926                       # miss rate for demand accesses
system.l2.overall_miss_rate::cpu.inst        0.013497                       # miss rate for overall accesses
system.l2.overall_miss_rate::cpu.data        0.160068                       # miss rate for overall accesses
system.l2.overall_miss_rate::total           0.038926                       # miss rate for overall accesses
system.l2.ReadReq_avg_miss_latency::cpu.inst 52578.947368                       # average ReadReq miss latency
system.l2.ReadReq_avg_miss_latency::cpu.data 52160.282258                       # average ReadReq miss latency
system.l2.ReadReq_avg_miss_latency::total 52341.894977                       # average ReadReq miss latency
system.l2.ReadExReq_avg_miss_latency::cpu.data 52083.333333                       # average ReadExReq miss latency
system.l2.ReadExReq_avg_miss_latency::total 52083.333333                       # average ReadExReq miss latency
system.l2.demand_avg_miss_latency::cpu.inst 52578.947368                       # average overall miss latency
system.l2.demand_avg_miss_latency::cpu.data 52123.678647                       # average overall miss latency
system.l2.demand_avg_miss_latency::total 52254.147813                       # average overall miss latency
system.l2.overall_avg_miss_latency::cpu.inst 52578.947368                       # average overall miss latency
system.l2.overall_avg_miss_latency::cpu.data 52123.678647                       # average overall miss latency
system.l2.overall_avg_miss_latency::total 52254.147813                       # average overall miss latency
system.l2.blocked_cycles::no_mshrs                  0                       # number of cycles access was blocked
system.l2.blocked_cycles::no_targets                0                       # number of cycles access was blocked
system.l2.blocked::no_mshrs                         0                       # number of cycles access was blocked
system.l2.blocked::no_targets                       0                       # number of cycles access was blocked
system.l2.avg_blocked_cycles::no_mshrs            nan                       # average number of cycles each access was blocked
system.l2.avg_blocked_cycles::no_targets          nan                       # average number of cycles each access was blocked
system.l2.fast_writes                               0                       # number of fast writes performed
system.l2.cache_copies                              0                       # number of cache copies performed
system.l2.ReadReq_mshr_misses::cpu.inst           380                       # number of ReadReq MSHR misses
system.l2.ReadReq_mshr_misses::cpu.data           496                       # number of ReadReq MSHR misses
system.l2.ReadReq_mshr_misses::total              876                       # number of ReadReq MSHR misses
system.l2.ReadExReq_mshr_misses::cpu.data          450                       # number of ReadExReq MSHR misses
system.l2.ReadExReq_mshr_misses::total            450                       # number of ReadExReq MSHR misses
system.l2.demand_mshr_misses::cpu.inst            380                       # number of demand (read+write) MSHR misses
system.l2.demand_mshr_misses::cpu.data            946                       # number of demand (read+write) MSHR misses
system.l2.demand_mshr_misses::total              1326                       # number of demand (read+write) MSHR misses
system.l2.overall_mshr_misses::cpu.inst           380                       # number of overall MSHR misses
system.l2.overall_mshr_misses::cpu.data           946                       # number of overall MSHR misses
system.l2.overall_mshr_misses::total             1326                       # number of overall MSHR misses
system.l2.ReadReq_mshr_miss_latency::cpu.inst     15332500                       # number of ReadReq MSHR miss cycles
system.l2.ReadReq_mshr_miss_latency::cpu.data     19879500                       # number of ReadReq MSHR miss cycles
system.l2.ReadReq_mshr_miss_latency::total     35212000                       # number of ReadReq MSHR miss cycles
system.l2.ReadExReq_mshr_miss_latency::cpu.data     18025500                       # number of ReadExReq MSHR miss cycles
system.l2.ReadExReq_mshr_miss_latency::total     18025500                       # number of ReadExReq MSHR miss cycles
system.l2.demand_mshr_miss_latency::cpu.inst     15332500                       # number of demand (read+write) MSHR miss cycles
system.l2.demand_mshr_miss_latency::cpu.data     37905000                       # number of demand (read+write) MSHR miss cycles
system.l2.demand_mshr_miss_latency::total     53237500                       # number of demand (read+write) MSHR miss cycles
system.l2.overall_mshr_miss_latency::cpu.inst     15332500                       # number of overall MSHR miss cycles
system.l2.overall_mshr_miss_latency::cpu.data     37905000                       # number of overall MSHR miss cycles
system.l2.overall_mshr_miss_latency::total     53237500                       # number of overall MSHR miss cycles
system.l2.ReadReq_mshr_miss_rate::cpu.inst     0.013497                       # mshr miss rate for ReadReq accesses
system.l2.ReadReq_mshr_miss_rate::cpu.data     0.123260                       # mshr miss rate for ReadReq accesses
system.l2.ReadReq_mshr_miss_rate::total      0.027223                       # mshr miss rate for ReadReq accesses
system.l2.ReadExReq_mshr_miss_rate::cpu.data     0.238600                       # mshr miss rate for ReadExReq accesses
system.l2.ReadExReq_mshr_miss_rate::total     0.238600                       # mshr miss rate for ReadExReq accesses
system.l2.demand_mshr_miss_rate::cpu.inst     0.013497                       # mshr miss rate for demand accesses
system.l2.demand_mshr_miss_rate::cpu.data     0.160068                       # mshr miss rate for demand accesses
system.l2.demand_mshr_miss_rate::total       0.038926                       # mshr miss rate for demand accesses
system.l2.overall_mshr_miss_rate::cpu.inst     0.013497                       # mshr miss rate for overall accesses
system.l2.overall_mshr_miss_rate::cpu.data     0.160068                       # mshr miss rate for overall accesses
system.l2.overall_mshr_miss_rate::total      0.038926                       # mshr miss rate for overall accesses
system.l2.ReadReq_avg_mshr_miss_latency::cpu.inst 40348.684211                       # average ReadReq mshr miss latency
system.l2.ReadReq_avg_mshr_miss_latency::cpu.data 40079.637097                       # average ReadReq mshr miss latency
system.l2.ReadReq_avg_mshr_miss_latency::total 40196.347032                       # average ReadReq mshr miss latency
system.l2.ReadExReq_avg_mshr_miss_latency::cpu.data 40056.666667                       # average ReadExReq mshr miss latency
system.l2.ReadExReq_avg_mshr_miss_latency::total 40056.666667                       # average ReadExReq mshr miss latency
system.l2.demand_avg_mshr_miss_latency::cpu.inst 40348.684211                       # average overall mshr miss latency
system.l2.demand_avg_mshr_miss_latency::cpu.data 40068.710359                       # average overall mshr miss latency
system.l2.demand_avg_mshr_miss_latency::total 40148.944193                       # average overall mshr miss latency
system.l2.overall_avg_mshr_miss_latency::cpu.inst 40348.684211                       # average overall mshr miss latency
system.l2.overall_avg_mshr_miss_latency::cpu.data 40068.710359                       # average overall mshr miss latency
system.l2.overall_avg_mshr_miss_latency::total 40148.944193                       # average overall mshr miss latency
system.l2.no_allocate_misses                        0                       # Number of misses that were no-allocate
system.cpu.branchPred.lookups                  956886                       # Number of BP lookups
system.cpu.branchPred.condPredicted            956886                       # Number of conditional branches predicted
system.cpu.branchPred.condIncorrect            124320                       # Number of conditional branches incorrect
system.cpu.branchPred.BTBLookups               562597                       # Number of BTB lookups
system.cpu.branchPred.BTBHits                  544354                       # Number of BTB hits
system.cpu.branchPred.BTBCorrect                    0                       # Number of correct BTB predictions (this stat may not work properly.
system.cpu.branchPred.BTBHitPct             96.757359                       # BTB Hit Percentage
system.cpu.branchPred.usedRAS                       0                       # Number of times the RAS was used to get a target.
system.cpu.branchPred.RASInCorrect                  0                       # Number of incorrect RAS predictions.
system.cpu.workload.num_syscalls                 1341                       # Number of system calls
system.cpu.numCycles                         36179077                       # number of cpu cycles simulated
system.cpu.numWorkItemsStarted                      0                       # number of work items this cpu started
system.cpu.numWorkItemsCompleted                    0                       # number of work items this cpu completed
system.cpu.fetch.icacheStallCycles            1008963                       # Number of cycles fetch is stalled on an Icache miss
system.cpu.fetch.Insts                        3855973                       # Number of instructions fetch has processed
system.cpu.fetch.Branches                      956886                       # Number of branches that fetch encountered
system.cpu.fetch.predictedBranches             544354                       # Number of branches that fetch has predicted taken
system.cpu.fetch.Cycles                       8333790                       # Number of cycles fetch has run and was not squashing or blocked
system.cpu.fetch.SquashCycles                  248642                       # Number of cycles fetch has spent squashing
system.cpu.fetch.BlockedCycles               26465291                       # Number of cycles fetch has spent blocked
system.cpu.fetch.CacheLines                    458847                       # Number of cache lines fetched
system.cpu.fetch.IcacheSquashes                  1777                       # Number of outstanding Icache misses that were squashed
system.cpu.fetch.rateDist::samples           35932365                       # Number of instructions fetched each cycle (Total)
system.cpu.fetch.rateDist::mean              0.228090                       # Number of instructions fetched each cycle (Total)
system.cpu.fetch.rateDist::stdev             0.419601                       # Number of instructions fetched each cycle (Total)
system.cpu.fetch.rateDist::underflows               0      0.00%      0.00% # Number of instructions fetched each cycle (Total)
system.cpu.fetch.rateDist::0                 27736542     77.19%     77.19% # Number of instructions fetched each cycle (Total)
system.cpu.fetch.rateDist::1                  8195823     22.81%    100.00% # Number of instructions fetched each cycle (Total)
system.cpu.fetch.rateDist::overflows                0      0.00%    100.00% # Number of instructions fetched each cycle (Total)
system.cpu.fetch.rateDist::min_value                0                       # Number of instructions fetched each cycle (Total)
system.cpu.fetch.rateDist::max_value                1                       # Number of instructions fetched each cycle (Total)
system.cpu.fetch.rateDist::total             35932365                       # Number of instructions fetched each cycle (Total)
system.cpu.fetch.branchRate                  0.026449                       # Number of branch fetches per cycle
system.cpu.fetch.rate                        0.106580                       # Number of inst fetches per cycle
system.cpu.decode.IdleCycles                  6590594                       # Number of cycles decode is idle
system.cpu.decode.BlockedCycles              21087359                       # Number of cycles decode is blocked
system.cpu.decode.RunCycles                   6062353                       # Number of cycles decode is running
system.cpu.decode.UnblockCycles               2067738                       # Number of cycles decode is unblocking
system.cpu.decode.SquashCycles                 124321                       # Number of cycles decode is squashing
system.cpu.decode.DecodedInsts                8130091                       # Number of instructions handled by decode
system.cpu.rename.SquashCycles                 124321                       # Number of cycles rename is squashing
system.cpu.rename.IdleCycles                  9183073                       # Number of cycles rename is idle
system.cpu.rename.BlockCycles                18568068                       # Number of cycles rename is blocking
system.cpu.rename.serializeStallCycles           6807                       # count of cycles rename stalled for serializing inst
system.cpu.rename.RunCycles                   2302045                       # Number of cycles rename is running
system.cpu.rename.UnblockCycles               5748051                       # Number of cycles rename is unblocking
system.cpu.rename.RenamedInsts                8048753                       # Number of instructions processed by rename
system.cpu.rename.IQFullEvents                1799819                       # Number of times rename has blocked due to IQ full
system.cpu.rename.RenamedOperands             9319758                       # Number of destination operands rename has renamed
system.cpu.rename.RenameLookups              20340122                       # Number of register rename lookups that rename has made
system.cpu.rename.int_rename_lookups         18388009                       # Number of integer rename lookups
system.cpu.rename.fp_rename_lookups           1952113                       # Number of floating rename lookups
system.cpu.rename.CommittedMaps               9277947                       # Number of HB maps that are committed
system.cpu.rename.UndoneMaps                    41811                       # Number of HB maps that are undone due to squashing
system.cpu.rename.serializingInsts               1343                       # count of serializing insts renamed
system.cpu.rename.tempSerializingInsts           1343                       # count of temporary serializing insts renamed
system.cpu.rename.skidInsts                   5813783                       # count of insts added to the skid buffer
system.cpu.memDep0.insertedLoads               734078                       # Number of loads inserted to the mem dependence unit.
system.cpu.memDep0.insertedStores              758403                       # Number of stores inserted to the mem dependence unit.
system.cpu.memDep0.conflictingLoads                 0                       # Number of conflicting loads.
system.cpu.memDep0.conflictingStores                0                       # Number of conflicting stores.
system.cpu.iq.iqInstsAdded                    7943916                       # Number of instructions added to the IQ (excludes non-spec)
system.cpu.iq.iqNonSpecInstsAdded                1342                       # Number of non-speculative instructions added to the IQ
system.cpu.iq.iqInstsIssued                   7945258                       # Number of instructions issued
system.cpu.iq.issued_per_cycle::samples      35932365                       # Number of insts issued each cycle
system.cpu.iq.issued_per_cycle::mean         0.221117                       # Number of insts issued each cycle
system.cpu.iq.issued_per_cycle::stdev        0.414999                       # Number of insts issued each cycle
system.cpu.iq.issued_per_cycle::underflows            0      0.00%      0.00% # Number of insts issued each cycle
system.cpu.iq.issued_per_cycle::0            27987107     77.89%     77.89% # Number of insts issued each cycle
system.cpu.iq.issued_per_cycle::1             7945258     22.11%    100.00% # Number of insts issued each cycle
system.cpu.iq.issued_per_cycle::overflows            0      0.00%    100.00% # Number of insts issued each cycle
system.cpu.iq.issued_per_cycle::min_value            0                       # Number of insts issued each cycle
system.cpu.iq.issued_per_cycle::max_value            1                       # Number of insts issued each cycle
system.cpu.iq.issued_per_cycle::total        35932365                       # Number of insts issued each cycle
system.cpu.iq.fu_full::No_OpClass                   0                       # attempts to use FU when none available
system.cpu.iq.fu_full::IntAlu                       0                       # attempts to use FU when none available
system.cpu.iq.fu_full::IntMult                      0                       # attempts to use FU when none available
system.cpu.iq.fu_full::IntDiv                       0                       # attempts to use FU when none available
system.cpu.iq.fu_full::FloatAdd                     0                       # attempts to use FU when none available
system.cpu.iq.fu_full::FloatCmp                     0                       # attempts to use FU when none available
system.cpu.iq.fu_full::FloatCvt                     0                       # attempts to use FU when none available
system.cpu.iq.fu_full::FloatMult                    0                       # attempts to use FU when none available
system.cpu.iq.fu_full::FloatDiv                     0                       # attempts to use FU when none available
system.cpu.iq.fu_full::FloatSqrt                    0                       # attempts to use FU when none available
system.cpu.iq.fu_full::SimdAdd                      0                       # attempts to use FU when none available
system.cpu.iq.fu_full::SimdAddAcc                   0                       # attempts to use FU when none available
system.cpu.iq.fu_full::SimdAlu                      0                       # attempts to use FU when none available
system.cpu.iq.fu_full::SimdCmp                      0                       # attempts to use FU when none available
system.cpu.iq.fu_full::SimdCvt                      0                       # attempts to use FU when none available
system.cpu.iq.fu_full::SimdMisc                     0                       # attempts to use FU when none available
system.cpu.iq.fu_full::SimdMult                     0                       # attempts to use FU when none available
system.cpu.iq.fu_full::SimdMultAcc                  0                       # attempts to use FU when none available
system.cpu.iq.fu_full::SimdShift                    0                       # attempts to use FU when none available
system.cpu.iq.fu_full::SimdShiftAcc                 0                       # attempts to use FU when none available
system.cpu.iq.fu_full::SimdSqrt                     0                       # attempts to use FU when none available
system.cpu.iq.fu_full::SimdFloatAdd                 0                       # attempts to use FU when none available
system.cpu.iq.fu_full::SimdFloatAlu                 0                       # attempts to use FU when none available
system.cpu.iq.fu_full::SimdFloatCmp                 0                       # attempts to use FU when none available
system.cpu.iq.fu_full::SimdFloatCvt                 0                       # attempts to use FU when none available
system.cpu.iq.fu_full::SimdFloatDiv                 0                       # attempts to use FU when none available
system.cpu.iq.fu_full::SimdFloatMisc                0                       # attempts to use FU when none available
system.cpu.iq.fu_full::SimdFloatMult                0                       # attempts to use FU when none available
system.cpu.iq.fu_full::SimdFloatMultAcc             0                       # attempts to use FU when none available
system.cpu.iq.fu_full::SimdFloatSqrt                0                       # attempts to use FU when none available
system.cpu.iq.fu_full::MemRead                      0                       # attempts to use FU when none available
system.cpu.iq.fu_full::MemWrite                     0                       # attempts to use FU when none available
system.cpu.iq.fu_full::IprAccess                    0                       # attempts to use FU when none available
system.cpu.iq.fu_full::InstPrefetch                 0                       # attempts to use FU when none available
system.cpu.iq.FU_type_0::No_OpClass            128730      1.62%      1.62% # Type of FU issued
system.cpu.iq.FU_type_0::IntAlu               6101120     76.79%     78.41% # Type of FU issued
system.cpu.iq.FU_type_0::IntMult                    0      0.00%     78.41% # Type of FU issued
system.cpu.iq.FU_type_0::IntDiv                     0      0.00%     78.41% # Type of FU issued
system.cpu.iq.FU_type_0::FloatAdd              222927      2.81%     81.22% # Type of FU issued
system.cpu.iq.FU_type_0::FloatCmp                   0      0.00%     81.22% # Type of FU issued
system.cpu.iq.FU_type_0::FloatCvt                   0      0.00%     81.22% # Type of FU issued
system.cpu.iq.FU_type_0::FloatMult                  0      0.00%     81.22% # Type of FU issued
system.cpu.iq.FU_type_0::FloatDiv                   0      0.00%     81.22% # Type of FU issued
system.cpu.iq.FU_type_0::FloatSqrt                  0      0.00%     81.22% # Type of FU issued
system.cpu.iq.FU_type_0::SimdAdd                    0      0.00%     81.22% # Type of FU issued
system.cpu.iq.FU_type_0::SimdAddAcc                 0      0.00%     81.22% # Type of FU issued
system.cpu.iq.FU_type_0::SimdAlu                    0      0.00%     81.22% # Type of FU issued
system.cpu.iq.FU_type_0::SimdCmp                    0      0.00%     81.22% # Type of FU issued
system.cpu.iq.FU_type_0::SimdCvt                    0      0.00%     81.22% # Type of FU issued
system.cpu.iq.FU_type_0::SimdMisc                   0      0.00%     81.22% # Type of FU issued
system.cpu.iq.FU_type_0::SimdMult                   0      0.00%     81.22% # Type of FU issued
system.cpu.iq.FU_type_0::SimdMultAcc                0      0.00%     81.22% # Type of FU issued
system.cpu.iq.FU_type_0::SimdShift                  0      0.00%     81.22% # Type of FU issued
system.cpu.iq.FU_type_0::SimdShiftAcc               0      0.00%     81.22% # Type of FU issued
system.cpu.iq.FU_type_0::SimdSqrt                   0      0.00%     81.22% # Type of FU issued
system.cpu.iq.FU_type_0::SimdFloatAdd               0      0.00%     81.22% # Type of FU issued
system.cpu.iq.FU_type_0::SimdFloatAlu               0      0.00%     81.22% # Type of FU issued
system.cpu.iq.FU_type_0::SimdFloatCmp               0      0.00%     81.22% # Type of FU issued
system.cpu.iq.FU_type_0::SimdFloatCvt               0      0.00%     81.22% # Type of FU issued
system.cpu.iq.FU_type_0::SimdFloatDiv               0      0.00%     81.22% # Type of FU issued
system.cpu.iq.FU_type_0::SimdFloatMisc              0      0.00%     81.22% # Type of FU issued
system.cpu.iq.FU_type_0::SimdFloatMult              0      0.00%     81.22% # Type of FU issued
system.cpu.iq.FU_type_0::SimdFloatMultAcc            0      0.00%     81.22% # Type of FU issued
system.cpu.iq.FU_type_0::SimdFloatSqrt              0      0.00%     81.22% # Type of FU issued
system.cpu.iq.FU_type_0::MemRead               734078      9.24%     90.45% # Type of FU issued
system.cpu.iq.FU_type_0::MemWrite              758403      9.55%    100.00% # Type of FU issued
system.cpu.iq.FU_type_0::IprAccess                  0      0.00%    100.00% # Type of FU issued
system.cpu.iq.FU_type_0::InstPrefetch               0      0.00%    100.00% # Type of FU issued
system.cpu.iq.FU_type_0::total                7945258                       # Type of FU issued
system.cpu.iq.rate                           0.219609                       # Inst issue rate
system.cpu.iq.fu_busy_cnt                           0                       # FU busy when requested
system.cpu.iq.fu_busy_rate                          0                       # FU busy rate (busy events/executed inst)
system.cpu.iq.int_inst_queue_reads           50625347                       # Number of integer instruction queue reads
system.cpu.iq.int_inst_queue_writes           7346491                       # Number of integer instruction queue writes
system.cpu.iq.int_inst_queue_wakeup_accesses      7346491                       # Number of integer instruction queue wakeup accesses
system.cpu.iq.fp_inst_queue_reads             1197534                       # Number of floating instruction queue reads
system.cpu.iq.fp_inst_queue_writes             598767                       # Number of floating instruction queue writes
system.cpu.iq.fp_inst_queue_wakeup_accesses       598767                       # Number of floating instruction queue wakeup accesses
system.cpu.iq.int_alu_accesses                7217761                       # Number of integer alu accesses
system.cpu.iq.fp_alu_accesses                  598767                       # Number of floating point alu accesses
system.cpu.iew.lsq.thread0.forwLoads             1334                       # Number of loads that had data forwarded from stores
system.cpu.iew.lsq.thread0.invAddrLoads             0                       # Number of loads ignored due to an invalid address
system.cpu.iew.lsq.thread0.squashedLoads            0                       # Number of loads squashed
system.cpu.iew.lsq.thread0.ignoredResponses            0                       # Number of memory responses ignored because the instruction is squashed
system.cpu.iew.lsq.thread0.memOrderViolation            0                       # Number of memory ordering violations
system.cpu.iew.lsq.thread0.squashedStores            0                       # Number of stores squashed
system.cpu.iew.lsq.thread0.invAddrSwpfs             0                       # Number of software prefetches ignored due to an invalid address
system.cpu.iew.lsq.thread0.blockedLoads             0                       # Number of blocked loads due to partial load-store forwarding
system.cpu.iew.lsq.thread0.rescheduledLoads            0                       # Number of loads that were rescheduled
system.cpu.iew.lsq.thread0.cacheBlocked             0                       # Number of times an access to memory failed due to the cache being blocked
system.cpu.iew.iewIdleCycles                        0                       # Number of cycles IEW is idle
system.cpu.iew.iewSquashCycles                 124321                       # Number of cycles IEW is squashing
system.cpu.iew.iewBlockCycles                 3015460                       # Number of cycles IEW is blocking
system.cpu.iew.iewUnblockCycles                513138                       # Number of cycles IEW is unblocking
system.cpu.iew.iewDispatchedInsts             7945258                       # Number of instructions dispatched to IQ
system.cpu.iew.iewDispSquashedInsts                 0                       # Number of squashed instructions skipped by dispatch
system.cpu.iew.iewDispLoadInsts                734078                       # Number of dispatched load instructions
system.cpu.iew.iewDispStoreInsts               758403                       # Number of dispatched store instructions
system.cpu.iew.iewDispNonSpecInsts               1342                       # Number of dispatched non-speculative instructions
system.cpu.iew.iewIQFullEvents                      0                       # Number of times the IQ has become full, causing a stall
system.cpu.iew.iewLSQFullEvents                     0                       # Number of times the LSQ has become full, causing a stall
system.cpu.iew.memOrderViolationEvents              0                       # Number of memory order violations
system.cpu.iew.predictedTakenIncorrect          33288                       # Number of branches that were predicted taken incorrectly
system.cpu.iew.predictedNotTakenIncorrect        91032                       # Number of branches that were predicted not taken incorrectly
system.cpu.iew.branchMispredicts               124320                       # Number of branch mispredicts detected at execute
system.cpu.iew.iewExecutedInsts               7945258                       # Number of executed instructions
system.cpu.iew.iewExecLoadInsts                734078                       # Number of load instructions executed
system.cpu.iew.iewExecSquashedInsts                 0                       # Number of squashed instructions skipped in execute
system.cpu.iew.exec_swp                             0                       # number of swp insts executed
system.cpu.iew.exec_nop                             0                       # number of nop insts executed
system.cpu.iew.exec_refs                      1492481                       # number of memory reference insts executed
system.cpu.iew.exec_branches                   956802                       # Number of branches executed
system.cpu.iew.exec_stores                     758403                       # Number of stores executed
system.cpu.iew.exec_rate                     0.219609                       # Inst execution rate
system.cpu.iew.wb_sent                        7945258                       # cumulative count of insts sent to commit
system.cpu.iew.wb_count                       7945258                       # cumulative count of insts written-back
system.cpu.iew.wb_producers                         0                       # num instructions producing a value
system.cpu.iew.wb_consumers                         0                       # num instructions consuming a value
system.cpu.iew.wb_penalized                         0                       # number of instrctions required to write to 'other' IQ
system.cpu.iew.wb_rate                       0.219609                       # insts written-back per cycle
system.cpu.iew.wb_fanout                          nan                       # average fanout of values written-back
system.cpu.iew.wb_penalized_rate                    0                       # fraction of instructions written-back that wrote to 'other' IQ
system.cpu.commit.commitNonSpecStalls            1342                       # The number of times commit has been forced to stall to communicate backwards
system.cpu.commit.branchMispredicts            124320                       # The number of times a branch was mispredicted
system.cpu.commit.committed_per_cycle::samples     35808044                       # Number of insts commited each cycle
system.cpu.commit.committed_per_cycle::mean     0.221885                       # Number of insts commited each cycle
system.cpu.commit.committed_per_cycle::stdev     0.415514                       # Number of insts commited each cycle
system.cpu.commit.committed_per_cycle::underflows            0      0.00%      0.00% # Number of insts commited each cycle
system.cpu.commit.committed_per_cycle::0     27862787     77.81%     77.81% # Number of insts commited each cycle
system.cpu.commit.committed_per_cycle::1      7945257     22.19%    100.00% # Number of insts commited each cycle
system.cpu.commit.committed_per_cycle::overflows            0      0.00%    100.00% # Number of insts commited each cycle
system.cpu.commit.committed_per_cycle::min_value            0                       # Number of insts commited each cycle
system.cpu.commit.committed_per_cycle::max_value            1                       # Number of insts commited each cycle
system.cpu.commit.committed_per_cycle::total     35808044                       # Number of insts commited each cycle
system.cpu.commit.committedInsts              3744478                       # Number of instructions committed
system.cpu.commit.committedOps                7945257                       # Number of ops (including micro ops) committed
system.cpu.commit.swp_count                         0                       # Number of s/w prefetches committed
system.cpu.commit.refs                        1492481                       # Number of memory references committed
system.cpu.commit.loads                        734078                       # Number of loads committed
system.cpu.commit.membars                           0                       # Number of memory barriers committed
system.cpu.commit.branches                     956802                       # Number of branches committed
system.cpu.commit.fp_insts                     598767                       # Number of committed floating point instructions.
system.cpu.commit.int_insts                   7732762                       # Number of committed integer instructions.
system.cpu.commit.function_calls                    0                       # Number of function calls committed.
system.cpu.commit.bw_lim_events               7945257                       # number cycles where commit BW limit reached
system.cpu.commit.bw_limited                        0                       # number of insts not committed due to BW limits
system.cpu.rob.rob_reads                     35808044                       # The number of ROB reads
system.cpu.rob.rob_writes                    16014835                       # The number of ROB writes
system.cpu.timesIdled                           30369                       # Number of times that the entire CPU went into an idle state and unscheduled itself
system.cpu.idleCycles                          246712                       # Total number of cycles that the CPU has spent unscheduled due to idling
system.cpu.committedInsts                     3744478                       # Number of Instructions Simulated
system.cpu.committedOps                       7945257                       # Number of Ops (including micro ops) Simulated
system.cpu.committedInsts_total               3744478                       # Number of Instructions Simulated
system.cpu.cpi                               9.661981                       # CPI: Cycles Per Instruction
system.cpu.cpi_total                         9.661981                       # CPI: Total CPI of All Threads
system.cpu.ipc                               0.103498                       # IPC: Instructions Per Cycle
system.cpu.ipc_total                         0.103498                       # IPC: Total IPC of All Threads
system.cpu.int_regfile_reads                 16314046                       # number of integer regfile reads
system.cpu.int_regfile_writes                 9069150                       # number of integer regfile writes
system.cpu.fp_regfile_reads                    767049                       # number of floating regfile reads
system.cpu.fp_regfile_writes                   210137                       # number of floating regfile writes
system.cpu.misc_regfile_reads                 3199788                       # number of misc regfile reads
system.cpu.misc_regfile_writes                      1                       # number of misc regfile writes
system.cpu.itb_walker_cache.replacements            0                       # number of replacements
system.cpu.itb_walker_cache.tagsinuse               0                       # Cycle average of tags in use
system.cpu.itb_walker_cache.total_refs              0                       # Total number of references to valid blocks.
system.cpu.itb_walker_cache.sampled_refs            0                       # Sample count of references to valid blocks.
system.cpu.itb_walker_cache.avg_refs              nan                       # Average number of references to valid blocks.
system.cpu.itb_walker_cache.warmup_cycle            0                       # Cycle when the warmup percentage was hit.
system.cpu.itb_walker_cache.blocked_cycles::no_mshrs            0                       # number of cycles access was blocked
system.cpu.itb_walker_cache.blocked_cycles::no_targets            0                       # number of cycles access was blocked
system.cpu.itb_walker_cache.blocked::no_mshrs            0                       # number of cycles access was blocked
system.cpu.itb_walker_cache.blocked::no_targets            0                       # number of cycles access was blocked
system.cpu.itb_walker_cache.avg_blocked_cycles::no_mshrs          nan                       # average number of cycles each access was blocked
system.cpu.itb_walker_cache.avg_blocked_cycles::no_targets          nan                       # average number of cycles each access was blocked
system.cpu.itb_walker_cache.fast_writes             0                       # number of fast writes performed
system.cpu.itb_walker_cache.cache_copies            0                       # number of cache copies performed
system.cpu.itb_walker_cache.no_allocate_misses            0                       # Number of misses that were no-allocate
system.cpu.dtb_walker_cache.replacements            0                       # number of replacements
system.cpu.dtb_walker_cache.tagsinuse               0                       # Cycle average of tags in use
system.cpu.dtb_walker_cache.total_refs              0                       # Total number of references to valid blocks.
system.cpu.dtb_walker_cache.sampled_refs            0                       # Sample count of references to valid blocks.
system.cpu.dtb_walker_cache.avg_refs              nan                       # Average number of references to valid blocks.
system.cpu.dtb_walker_cache.warmup_cycle            0                       # Cycle when the warmup percentage was hit.
system.cpu.dtb_walker_cache.blocked_cycles::no_mshrs            0                       # number of cycles access was blocked
system.cpu.dtb_walker_cache.blocked_cycles::no_targets            0                       # number of cycles access was blocked
system.cpu.dtb_walker_cache.blocked::no_mshrs            0                       # number of cycles access was blocked
system.cpu.dtb_walker_cache.blocked::no_targets            0                       # number of cycles access was blocked
system.cpu.dtb_walker_cache.avg_blocked_cycles::no_mshrs          nan                       # average number of cycles each access was blocked
system.cpu.dtb_walker_cache.avg_blocked_cycles::no_targets          nan                       # average number of cycles each access was blocked
system.cpu.dtb_walker_cache.fast_writes             0                       # number of fast writes performed
system.cpu.dtb_walker_cache.cache_copies            0                       # number of cache copies performed
system.cpu.dtb_walker_cache.no_allocate_misses            0                       # Number of misses that were no-allocate
system.cpu.icache.replacements                  27914                       # number of replacements
system.cpu.icache.tagsinuse                228.046356                       # Cycle average of tags in use
system.cpu.icache.total_refs                   430686                       # Total number of references to valid blocks.
system.cpu.icache.sampled_refs                  28155                       # Sample count of references to valid blocks.
system.cpu.icache.avg_refs                  15.296963                       # Average number of references to valid blocks.
system.cpu.icache.warmup_cycle                      0                       # Cycle when the warmup percentage was hit.
system.cpu.icache.occ_blocks::cpu.inst     228.046356                       # Average occupied blocks per requestor
system.cpu.icache.occ_percent::cpu.inst      0.890806                       # Average percentage of cache occupancy
system.cpu.icache.occ_percent::total         0.890806                       # Average percentage of cache occupancy
system.cpu.icache.ReadReq_hits::cpu.inst       430686                       # number of ReadReq hits
system.cpu.icache.ReadReq_hits::total          430686                       # number of ReadReq hits
system.cpu.icache.demand_hits::cpu.inst        430686                       # number of demand (read+write) hits
system.cpu.icache.demand_hits::total           430686                       # number of demand (read+write) hits
system.cpu.icache.overall_hits::cpu.inst       430686                       # number of overall hits
system.cpu.icache.overall_hits::total          430686                       # number of overall hits
system.cpu.icache.ReadReq_misses::cpu.inst        28161                       # number of ReadReq misses
system.cpu.icache.ReadReq_misses::total         28161                       # number of ReadReq misses
system.cpu.icache.demand_misses::cpu.inst        28161                       # number of demand (read+write) misses
system.cpu.icache.demand_misses::total          28161                       # number of demand (read+write) misses
system.cpu.icache.overall_misses::cpu.inst        28161                       # number of overall misses
system.cpu.icache.overall_misses::total         28161                       # number of overall misses
system.cpu.icache.ReadReq_miss_latency::cpu.inst    382472500                       # number of ReadReq miss cycles
system.cpu.icache.ReadReq_miss_latency::total    382472500                       # number of ReadReq miss cycles
system.cpu.icache.demand_miss_latency::cpu.inst    382472500                       # number of demand (read+write) miss cycles
system.cpu.icache.demand_miss_latency::total    382472500                       # number of demand (read+write) miss cycles
system.cpu.icache.overall_miss_latency::cpu.inst    382472500                       # number of overall miss cycles
system.cpu.icache.overall_miss_latency::total    382472500                       # number of overall miss cycles
system.cpu.icache.ReadReq_accesses::cpu.inst       458847                       # number of ReadReq accesses(hits+misses)
system.cpu.icache.ReadReq_accesses::total       458847                       # number of ReadReq accesses(hits+misses)
system.cpu.icache.demand_accesses::cpu.inst       458847                       # number of demand (read+write) accesses
system.cpu.icache.demand_accesses::total       458847                       # number of demand (read+write) accesses
system.cpu.icache.overall_accesses::cpu.inst       458847                       # number of overall (read+write) accesses
system.cpu.icache.overall_accesses::total       458847                       # number of overall (read+write) accesses
system.cpu.icache.ReadReq_miss_rate::cpu.inst     0.061373                       # miss rate for ReadReq accesses
system.cpu.icache.ReadReq_miss_rate::total     0.061373                       # miss rate for ReadReq accesses
system.cpu.icache.demand_miss_rate::cpu.inst     0.061373                       # miss rate for demand accesses
system.cpu.icache.demand_miss_rate::total     0.061373                       # miss rate for demand accesses
system.cpu.icache.overall_miss_rate::cpu.inst     0.061373                       # miss rate for overall accesses
system.cpu.icache.overall_miss_rate::total     0.061373                       # miss rate for overall accesses
system.cpu.icache.ReadReq_avg_miss_latency::cpu.inst 13581.637726                       # average ReadReq miss latency
system.cpu.icache.ReadReq_avg_miss_latency::total 13581.637726                       # average ReadReq miss latency
system.cpu.icache.demand_avg_miss_latency::cpu.inst 13581.637726                       # average overall miss latency
system.cpu.icache.demand_avg_miss_latency::total 13581.637726                       # average overall miss latency
system.cpu.icache.overall_avg_miss_latency::cpu.inst 13581.637726                       # average overall miss latency
system.cpu.icache.overall_avg_miss_latency::total 13581.637726                       # average overall miss latency
system.cpu.icache.blocked_cycles::no_mshrs            0                       # number of cycles access was blocked
system.cpu.icache.blocked_cycles::no_targets            0                       # number of cycles access was blocked
system.cpu.icache.blocked::no_mshrs                 0                       # number of cycles access was blocked
system.cpu.icache.blocked::no_targets               0                       # number of cycles access was blocked
system.cpu.icache.avg_blocked_cycles::no_mshrs          nan                       # average number of cycles each access was blocked
system.cpu.icache.avg_blocked_cycles::no_targets          nan                       # average number of cycles each access was blocked
system.cpu.icache.fast_writes                       0                       # number of fast writes performed
system.cpu.icache.cache_copies                      0                       # number of cache copies performed
system.cpu.icache.ReadReq_mshr_hits::cpu.inst            6                       # number of ReadReq MSHR hits
system.cpu.icache.ReadReq_mshr_hits::total            6                       # number of ReadReq MSHR hits
system.cpu.icache.demand_mshr_hits::cpu.inst            6                       # number of demand (read+write) MSHR hits
system.cpu.icache.demand_mshr_hits::total            6                       # number of demand (read+write) MSHR hits
system.cpu.icache.overall_mshr_hits::cpu.inst            6                       # number of overall MSHR hits
system.cpu.icache.overall_mshr_hits::total            6                       # number of overall MSHR hits
system.cpu.icache.ReadReq_mshr_misses::cpu.inst        28155                       # number of ReadReq MSHR misses
system.cpu.icache.ReadReq_mshr_misses::total        28155                       # number of ReadReq MSHR misses
system.cpu.icache.demand_mshr_misses::cpu.inst        28155                       # number of demand (read+write) MSHR misses
system.cpu.icache.demand_mshr_misses::total        28155                       # number of demand (read+write) MSHR misses
system.cpu.icache.overall_mshr_misses::cpu.inst        28155                       # number of overall MSHR misses
system.cpu.icache.overall_mshr_misses::total        28155                       # number of overall MSHR misses
system.cpu.icache.ReadReq_mshr_miss_latency::cpu.inst    325885000                       # number of ReadReq MSHR miss cycles
system.cpu.icache.ReadReq_mshr_miss_latency::total    325885000                       # number of ReadReq MSHR miss cycles
system.cpu.icache.demand_mshr_miss_latency::cpu.inst    325885000                       # number of demand (read+write) MSHR miss cycles
system.cpu.icache.demand_mshr_miss_latency::total    325885000                       # number of demand (read+write) MSHR miss cycles
system.cpu.icache.overall_mshr_miss_latency::cpu.inst    325885000                       # number of overall MSHR miss cycles
system.cpu.icache.overall_mshr_miss_latency::total    325885000                       # number of overall MSHR miss cycles
system.cpu.icache.ReadReq_mshr_miss_rate::cpu.inst     0.061360                       # mshr miss rate for ReadReq accesses
system.cpu.icache.ReadReq_mshr_miss_rate::total     0.061360                       # mshr miss rate for ReadReq accesses
system.cpu.icache.demand_mshr_miss_rate::cpu.inst     0.061360                       # mshr miss rate for demand accesses
system.cpu.icache.demand_mshr_miss_rate::total     0.061360                       # mshr miss rate for demand accesses
system.cpu.icache.overall_mshr_miss_rate::cpu.inst     0.061360                       # mshr miss rate for overall accesses
system.cpu.icache.overall_mshr_miss_rate::total     0.061360                       # mshr miss rate for overall accesses
system.cpu.icache.ReadReq_avg_mshr_miss_latency::cpu.inst 11574.675901                       # average ReadReq mshr miss latency
system.cpu.icache.ReadReq_avg_mshr_miss_latency::total 11574.675901                       # average ReadReq mshr miss latency
system.cpu.icache.demand_avg_mshr_miss_latency::cpu.inst 11574.675901                       # average overall mshr miss latency
system.cpu.icache.demand_avg_mshr_miss_latency::total 11574.675901                       # average overall mshr miss latency
system.cpu.icache.overall_avg_mshr_miss_latency::cpu.inst 11574.675901                       # average overall mshr miss latency
system.cpu.icache.overall_avg_mshr_miss_latency::total 11574.675901                       # average overall mshr miss latency
system.cpu.icache.no_allocate_misses                0                       # Number of misses that were no-allocate
system.cpu.dcache.replacements                   5654                       # number of replacements
system.cpu.dcache.tagsinuse                255.653517                       # Cycle average of tags in use
system.cpu.dcache.total_refs                  1486229                       # Total number of references to valid blocks.
system.cpu.dcache.sampled_refs                   5910                       # Sample count of references to valid blocks.
system.cpu.dcache.avg_refs                 251.476988                       # Average number of references to valid blocks.
system.cpu.dcache.warmup_cycle               49883000                       # Cycle when the warmup percentage was hit.
system.cpu.dcache.occ_blocks::cpu.data     255.653517                       # Average occupied blocks per requestor
system.cpu.dcache.occ_percent::cpu.data      0.998647                       # Average percentage of cache occupancy
system.cpu.dcache.occ_percent::total         0.998647                       # Average percentage of cache occupancy
system.cpu.dcache.ReadReq_hits::cpu.data       729161                       # number of ReadReq hits
system.cpu.dcache.ReadReq_hits::total          729161                       # number of ReadReq hits
system.cpu.dcache.WriteReq_hits::cpu.data       757068                       # number of WriteReq hits
system.cpu.dcache.WriteReq_hits::total         757068                       # number of WriteReq hits
system.cpu.dcache.demand_hits::cpu.data       1486229                       # number of demand (read+write) hits
system.cpu.dcache.demand_hits::total          1486229                       # number of demand (read+write) hits
system.cpu.dcache.overall_hits::cpu.data      1486229                       # number of overall hits
system.cpu.dcache.overall_hits::total         1486229                       # number of overall hits
system.cpu.dcache.ReadReq_misses::cpu.data         4024                       # number of ReadReq misses
system.cpu.dcache.ReadReq_misses::total          4024                       # number of ReadReq misses
system.cpu.dcache.WriteReq_misses::cpu.data         1886                       # number of WriteReq misses
system.cpu.dcache.WriteReq_misses::total         1886                       # number of WriteReq misses
system.cpu.dcache.demand_misses::cpu.data         5910                       # number of demand (read+write) misses
system.cpu.dcache.demand_misses::total           5910                       # number of demand (read+write) misses
system.cpu.dcache.overall_misses::cpu.data         5910                       # number of overall misses
system.cpu.dcache.overall_misses::total          5910                       # number of overall misses
system.cpu.dcache.ReadReq_miss_latency::cpu.data     73223500                       # number of ReadReq miss cycles
system.cpu.dcache.ReadReq_miss_latency::total     73223500                       # number of ReadReq miss cycles
system.cpu.dcache.WriteReq_miss_latency::cpu.data     43455500                       # number of WriteReq miss cycles
system.cpu.dcache.WriteReq_miss_latency::total     43455500                       # number of WriteReq miss cycles
system.cpu.dcache.demand_miss_latency::cpu.data    116679000                       # number of demand (read+write) miss cycles
system.cpu.dcache.demand_miss_latency::total    116679000                       # number of demand (read+write) miss cycles
system.cpu.dcache.overall_miss_latency::cpu.data    116679000                       # number of overall miss cycles
system.cpu.dcache.overall_miss_latency::total    116679000                       # number of overall miss cycles
system.cpu.dcache.ReadReq_accesses::cpu.data       733185                       # number of ReadReq accesses(hits+misses)
system.cpu.dcache.ReadReq_accesses::total       733185                       # number of ReadReq accesses(hits+misses)
system.cpu.dcache.WriteReq_accesses::cpu.data       758954                       # number of WriteReq accesses(hits+misses)
system.cpu.dcache.WriteReq_accesses::total       758954                       # number of WriteReq accesses(hits+misses)
system.cpu.dcache.demand_accesses::cpu.data      1492139                       # number of demand (read+write) accesses
system.cpu.dcache.demand_accesses::total      1492139                       # number of demand (read+write) accesses
system.cpu.dcache.overall_accesses::cpu.data      1492139                       # number of overall (read+write) accesses
system.cpu.dcache.overall_accesses::total      1492139                       # number of overall (read+write) accesses
system.cpu.dcache.ReadReq_miss_rate::cpu.data     0.005488                       # miss rate for ReadReq accesses
system.cpu.dcache.ReadReq_miss_rate::total     0.005488                       # miss rate for ReadReq accesses
system.cpu.dcache.WriteReq_miss_rate::cpu.data     0.002485                       # miss rate for WriteReq accesses
system.cpu.dcache.WriteReq_miss_rate::total     0.002485                       # miss rate for WriteReq accesses
system.cpu.dcache.demand_miss_rate::cpu.data     0.003961                       # miss rate for demand accesses
system.cpu.dcache.demand_miss_rate::total     0.003961                       # miss rate for demand accesses
system.cpu.dcache.overall_miss_rate::cpu.data     0.003961                       # miss rate for overall accesses
system.cpu.dcache.overall_miss_rate::total     0.003961                       # miss rate for overall accesses
system.cpu.dcache.ReadReq_avg_miss_latency::cpu.data 18196.694831                       # average ReadReq miss latency
system.cpu.dcache.ReadReq_avg_miss_latency::total 18196.694831                       # average ReadReq miss latency
system.cpu.dcache.WriteReq_avg_miss_latency::cpu.data 23041.092259                       # average WriteReq miss latency
system.cpu.dcache.WriteReq_avg_miss_latency::total 23041.092259                       # average WriteReq miss latency
system.cpu.dcache.demand_avg_miss_latency::cpu.data 19742.639594                       # average overall miss latency
system.cpu.dcache.demand_avg_miss_latency::total 19742.639594                       # average overall miss latency
system.cpu.dcache.overall_avg_miss_latency::cpu.data 19742.639594                       # average overall miss latency
system.cpu.dcache.overall_avg_miss_latency::total 19742.639594                       # average overall miss latency
system.cpu.dcache.blocked_cycles::no_mshrs            0                       # number of cycles access was blocked
system.cpu.dcache.blocked_cycles::no_targets            0                       # number of cycles access was blocked
system.cpu.dcache.blocked::no_mshrs                 0                       # number of cycles access was blocked
system.cpu.dcache.blocked::no_targets               0                       # number of cycles access was blocked
system.cpu.dcache.avg_blocked_cycles::no_mshrs          nan                       # average number of cycles each access was blocked
system.cpu.dcache.avg_blocked_cycles::no_targets          nan                       # average number of cycles each access was blocked
system.cpu.dcache.fast_writes                       0                       # number of fast writes performed
system.cpu.dcache.cache_copies                      0                       # number of cache copies performed
system.cpu.dcache.writebacks::writebacks         4877                       # number of writebacks
system.cpu.dcache.writebacks::total              4877                       # number of writebacks
system.cpu.dcache.ReadReq_mshr_misses::cpu.data         4024                       # number of ReadReq MSHR misses
system.cpu.dcache.ReadReq_mshr_misses::total         4024                       # number of ReadReq MSHR misses
system.cpu.dcache.WriteReq_mshr_misses::cpu.data         1886                       # number of WriteReq MSHR misses
system.cpu.dcache.WriteReq_mshr_misses::total         1886                       # number of WriteReq MSHR misses
system.cpu.dcache.demand_mshr_misses::cpu.data         5910                       # number of demand (read+write) MSHR misses
system.cpu.dcache.demand_mshr_misses::total         5910                       # number of demand (read+write) MSHR misses
system.cpu.dcache.overall_mshr_misses::cpu.data         5910                       # number of overall MSHR misses
system.cpu.dcache.overall_mshr_misses::total         5910                       # number of overall MSHR misses
system.cpu.dcache.ReadReq_mshr_miss_latency::cpu.data     65175500                       # number of ReadReq MSHR miss cycles
system.cpu.dcache.ReadReq_mshr_miss_latency::total     65175500                       # number of ReadReq MSHR miss cycles
system.cpu.dcache.WriteReq_mshr_miss_latency::cpu.data     39683500                       # number of WriteReq MSHR miss cycles
system.cpu.dcache.WriteReq_mshr_miss_latency::total     39683500                       # number of WriteReq MSHR miss cycles
system.cpu.dcache.demand_mshr_miss_latency::cpu.data    104859000                       # number of demand (read+write) MSHR miss cycles
system.cpu.dcache.demand_mshr_miss_latency::total    104859000                       # number of demand (read+write) MSHR miss cycles
system.cpu.dcache.overall_mshr_miss_latency::cpu.data    104859000                       # number of overall MSHR miss cycles
system.cpu.dcache.overall_mshr_miss_latency::total    104859000                       # number of overall MSHR miss cycles
system.cpu.dcache.ReadReq_mshr_miss_rate::cpu.data     0.005488                       # mshr miss rate for ReadReq accesses
system.cpu.dcache.ReadReq_mshr_miss_rate::total     0.005488                       # mshr miss rate for ReadReq accesses
system.cpu.dcache.WriteReq_mshr_miss_rate::cpu.data     0.002485                       # mshr miss rate for WriteReq accesses
system.cpu.dcache.WriteReq_mshr_miss_rate::total     0.002485                       # mshr miss rate for WriteReq accesses
system.cpu.dcache.demand_mshr_miss_rate::cpu.data     0.003961                       # mshr miss rate for demand accesses
system.cpu.dcache.demand_mshr_miss_rate::total     0.003961                       # mshr miss rate for demand accesses
system.cpu.dcache.overall_mshr_miss_rate::cpu.data     0.003961                       # mshr miss rate for overall accesses
system.cpu.dcache.overall_mshr_miss_rate::total     0.003961                       # mshr miss rate for overall accesses
system.cpu.dcache.ReadReq_avg_mshr_miss_latency::cpu.data 16196.694831                       # average ReadReq mshr miss latency
system.cpu.dcache.ReadReq_avg_mshr_miss_latency::total 16196.694831                       # average ReadReq mshr miss latency
system.cpu.dcache.WriteReq_avg_mshr_miss_latency::cpu.data 21041.092259                       # average WriteReq mshr miss latency
system.cpu.dcache.WriteReq_avg_mshr_miss_latency::total 21041.092259                       # average WriteReq mshr miss latency
system.cpu.dcache.demand_avg_mshr_miss_latency::cpu.data 17742.639594                       # average overall mshr miss latency
system.cpu.dcache.demand_avg_mshr_miss_latency::total 17742.639594                       # average overall mshr miss latency
system.cpu.dcache.overall_avg_mshr_miss_latency::cpu.data 17742.639594                       # average overall mshr miss latency
system.cpu.dcache.overall_avg_mshr_miss_latency::total 17742.639594                       # average overall mshr miss latency
system.cpu.dcache.no_allocate_misses                0                       # Number of misses that were no-allocate

---------- End Simulation Statistics   ----------
