
---------- Begin Simulation Statistics ----------
sim_seconds                                  0.364436                       # Number of seconds simulated
sim_ticks                                364436318500                       # Number of ticks simulated
final_tick                               1432405558500                       # Number of ticks from beginning of simulation (restored from checkpoints and never reset)
sim_freq                                 1000000000000                       # Frequency of simulated ticks
host_inst_rate                                  36290                       # Simulator instruction rate (inst/s)
host_op_rate                                    57000                       # Simulator op (including micro ops) rate (op/s)
host_tick_rate                              132254397                       # Simulator tick rate (ticks/s)
host_mem_usage                                2215592                       # Number of bytes of host memory used
host_seconds                                  2755.57                       # Real time elapsed on the host
sim_insts                                   100000000                       # Number of instructions simulated
sim_ops                                     157066184                       # Number of ops (including micro ops) simulated
system.physmem.bytes_read::cpu.inst              8704                       # Number of bytes read from this memory
system.physmem.bytes_read::cpu.data          50410752                       # Number of bytes read from this memory
system.physmem.bytes_read::total             50419456                       # Number of bytes read from this memory
system.physmem.bytes_inst_read::cpu.inst         8704                       # Number of instructions bytes read from this memory
system.physmem.bytes_inst_read::total            8704                       # Number of instructions bytes read from this memory
system.physmem.bytes_written::writebacks     44021312                       # Number of bytes written to this memory
system.physmem.bytes_written::total          44021312                       # Number of bytes written to this memory
system.physmem.num_reads::cpu.inst                136                       # Number of read requests responded to by this memory
system.physmem.num_reads::cpu.data             787668                       # Number of read requests responded to by this memory
system.physmem.num_reads::total                787804                       # Number of read requests responded to by this memory
system.physmem.num_writes::writebacks          687833                       # Number of write requests responded to by this memory
system.physmem.num_writes::total               687833                       # Number of write requests responded to by this memory
system.physmem.bw_read::cpu.inst                23883                       # Total read bandwidth from this memory (bytes/s)
system.physmem.bw_read::cpu.data            138325270                       # Total read bandwidth from this memory (bytes/s)
system.physmem.bw_read::total               138349153                       # Total read bandwidth from this memory (bytes/s)
system.physmem.bw_inst_read::cpu.inst           23883                       # Instruction read bandwidth from this memory (bytes/s)
system.physmem.bw_inst_read::total              23883                       # Instruction read bandwidth from this memory (bytes/s)
system.physmem.bw_write::writebacks         120792879                       # Write bandwidth from this memory (bytes/s)
system.physmem.bw_write::total              120792879                       # Write bandwidth from this memory (bytes/s)
system.physmem.bw_total::writebacks         120792879                       # Total bandwidth to/from this memory (bytes/s)
system.physmem.bw_total::cpu.inst               23883                       # Total bandwidth to/from this memory (bytes/s)
system.physmem.bw_total::cpu.data           138325270                       # Total bandwidth to/from this memory (bytes/s)
system.physmem.bw_total::total              259142032                       # Total bandwidth to/from this memory (bytes/s)
system.cpu.branchPred.lookups                11092457                       # Number of BP lookups
system.cpu.branchPred.condPredicted          11092457                       # Number of conditional branches predicted
system.cpu.branchPred.condIncorrect             98468                       # Number of conditional branches incorrect
system.cpu.branchPred.BTBLookups             11092421                       # Number of BTB lookups
system.cpu.branchPred.BTBHits                10666212                       # Number of BTB hits
system.cpu.branchPred.BTBCorrect                    0                       # Number of correct BTB predictions (this stat may not work properly.
system.cpu.branchPred.BTBHitPct             96.157656                       # BTB Hit Percentage
system.cpu.branchPred.usedRAS                       0                       # Number of times the RAS was used to get a target.
system.cpu.branchPred.RASInCorrect                  0                       # Number of incorrect RAS predictions.
system.cpu.workload.num_syscalls                    1                       # Number of system calls
system.cpu.numCycles                        728872637                       # number of cpu cycles simulated
system.cpu.numWorkItemsStarted                      0                       # number of work items this cpu started
system.cpu.numWorkItemsCompleted                    0                       # number of work items this cpu completed
system.cpu.fetch.icacheStallCycles           21269362                       # Number of cycles fetch is stalled on an Icache miss
system.cpu.fetch.Insts                      100196841                       # Number of instructions fetch has processed
system.cpu.fetch.Branches                    11092457                       # Number of branches that fetch encountered
system.cpu.fetch.predictedBranches           10666212                       # Number of branches that fetch has predicted taken
system.cpu.fetch.Cycles                     167634436                       # Number of cycles fetch has run and was not squashing or blocked
system.cpu.fetch.SquashCycles                  196936                       # Number of cycles fetch has spent squashing
system.cpu.fetch.BlockedCycles              531812177                       # Number of cycles fetch has spent blocked
system.cpu.fetch.CacheLines                  21168823                       # Number of cache lines fetched
system.cpu.fetch.IcacheSquashes                    17                       # Number of outstanding Icache misses that were squashed
system.cpu.fetch.rateDist::samples          720814443                       # Number of instructions fetched each cycle (Total)
system.cpu.fetch.rateDist::mean              0.218174                       # Number of instructions fetched each cycle (Total)
system.cpu.fetch.rateDist::stdev             0.413006                       # Number of instructions fetched each cycle (Total)
system.cpu.fetch.rateDist::underflows               0      0.00%      0.00% # Number of instructions fetched each cycle (Total)
system.cpu.fetch.rateDist::0                563551378     78.18%     78.18% # Number of instructions fetched each cycle (Total)
system.cpu.fetch.rateDist::1                157263065     21.82%    100.00% # Number of instructions fetched each cycle (Total)
system.cpu.fetch.rateDist::overflows                0      0.00%    100.00% # Number of instructions fetched each cycle (Total)
system.cpu.fetch.rateDist::min_value                0                       # Number of instructions fetched each cycle (Total)
system.cpu.fetch.rateDist::max_value                1                       # Number of instructions fetched each cycle (Total)
system.cpu.fetch.rateDist::total            720814443                       # Number of instructions fetched each cycle (Total)
system.cpu.fetch.branchRate                  0.015219                       # Number of branch fetches per cycle
system.cpu.fetch.rate                        0.137468                       # Number of inst fetches per cycle
system.cpu.decode.IdleCycles                133439722                       # Number of cycles decode is idle
system.cpu.decode.BlockedCycles             430013242                       # Number of cycles decode is blocked
system.cpu.decode.RunCycles                 122738050                       # Number of cycles decode is running
system.cpu.decode.UnblockCycles              34524959                       # Number of cycles decode is unblocking
system.cpu.decode.SquashCycles                  98468                       # Number of cycles decode is squashing
system.cpu.decode.DecodedInsts              157263011                       # Number of instructions handled by decode
system.cpu.rename.SquashCycles                  98468                       # Number of cycles rename is squashing
system.cpu.rename.IdleCycles                189201787                       # Number of cycles rename is idle
system.cpu.rename.BlockCycles               374349567                       # Number of cycles rename is blocking
system.cpu.rename.serializeStallCycles              5                       # count of cycles rename stalled for serializing inst
system.cpu.rename.RunCycles                  44929170                       # Number of cycles rename is running
system.cpu.rename.UnblockCycles             112235445                       # Number of cycles rename is unblocking
system.cpu.rename.RenamedInsts              157164615                       # Number of instructions processed by rename
system.cpu.rename.IQFullEvents               33637121                       # Number of times rename has blocked due to IQ full
system.cpu.rename.RenamedOperands           219545818                       # Number of destination operands rename has renamed
system.cpu.rename.RenameLookups             358649782                       # Number of register rename lookups that rename has made
system.cpu.rename.int_rename_lookups        343510875                       # Number of integer rename lookups
system.cpu.rename.fp_rename_lookups          15138907                       # Number of floating rename lookups
system.cpu.rename.CommittedMaps             219545710                       # Number of HB maps that are committed
system.cpu.rename.UndoneMaps                      107                       # Number of HB maps that are undone due to squashing
system.cpu.rename.serializingInsts                  1                       # count of serializing insts renamed
system.cpu.rename.tempSerializingInsts              1                       # count of temporary serializing insts renamed
system.cpu.rename.skidInsts                 112235511                       # count of insts added to the skid buffer
system.cpu.memDep0.insertedLoads             22675166                       # Number of loads inserted to the mem dependence unit.
system.cpu.memDep0.insertedStores            11100074                       # Number of stores inserted to the mem dependence unit.
system.cpu.memDep0.conflictingLoads                 6                       # Number of conflicting loads.
system.cpu.memDep0.conflictingStores                0                       # Number of conflicting stores.
system.cpu.iq.iqInstsAdded                  157066164                       # Number of instructions added to the IQ (excludes non-spec)
system.cpu.iq.iqNonSpecInstsAdded                  21                       # Number of non-speculative instructions added to the IQ
system.cpu.iq.iqInstsIssued                 157098956                       # Number of instructions issued
system.cpu.iq.issued_per_cycle::samples     720814443                       # Number of insts issued each cycle
system.cpu.iq.issued_per_cycle::mean         0.217946                       # Number of insts issued each cycle
system.cpu.iq.issued_per_cycle::stdev        0.412851                       # Number of insts issued each cycle
system.cpu.iq.issued_per_cycle::underflows            0      0.00%      0.00% # Number of insts issued each cycle
system.cpu.iq.issued_per_cycle::0           563715487     78.21%     78.21% # Number of insts issued each cycle
system.cpu.iq.issued_per_cycle::1           157098956     21.79%    100.00% # Number of insts issued each cycle
system.cpu.iq.issued_per_cycle::overflows            0      0.00%    100.00% # Number of insts issued each cycle
system.cpu.iq.issued_per_cycle::min_value            0                       # Number of insts issued each cycle
system.cpu.iq.issued_per_cycle::max_value            1                       # Number of insts issued each cycle
system.cpu.iq.issued_per_cycle::total       720814443                       # Number of insts issued each cycle
system.cpu.iq.fu_full::No_OpClass                   0                       # attempts to use FU when none available
system.cpu.iq.fu_full::IntAlu                       0                       # attempts to use FU when none available
system.cpu.iq.fu_full::IntMult                      0                       # attempts to use FU when none available
system.cpu.iq.fu_full::IntDiv                       0                       # attempts to use FU when none available
system.cpu.iq.fu_full::FloatAdd                     0                       # attempts to use FU when none available
system.cpu.iq.fu_full::FloatCmp                     0                       # attempts to use FU when none available
system.cpu.iq.fu_full::FloatCvt                     0                       # attempts to use FU when none available
system.cpu.iq.fu_full::FloatMult                    0                       # attempts to use FU when none available
system.cpu.iq.fu_full::FloatDiv                     0                       # attempts to use FU when none available
system.cpu.iq.fu_full::FloatSqrt                    0                       # attempts to use FU when none available
system.cpu.iq.fu_full::SimdAdd                      0                       # attempts to use FU when none available
system.cpu.iq.fu_full::SimdAddAcc                   0                       # attempts to use FU when none available
system.cpu.iq.fu_full::SimdAlu                      0                       # attempts to use FU when none available
system.cpu.iq.fu_full::SimdCmp                      0                       # attempts to use FU when none available
system.cpu.iq.fu_full::SimdCvt                      0                       # attempts to use FU when none available
system.cpu.iq.fu_full::SimdMisc                     0                       # attempts to use FU when none available
system.cpu.iq.fu_full::SimdMult                     0                       # attempts to use FU when none available
system.cpu.iq.fu_full::SimdMultAcc                  0                       # attempts to use FU when none available
system.cpu.iq.fu_full::SimdShift                    0                       # attempts to use FU when none available
system.cpu.iq.fu_full::SimdShiftAcc                 0                       # attempts to use FU when none available
system.cpu.iq.fu_full::SimdSqrt                     0                       # attempts to use FU when none available
system.cpu.iq.fu_full::SimdFloatAdd                 0                       # attempts to use FU when none available
system.cpu.iq.fu_full::SimdFloatAlu                 0                       # attempts to use FU when none available
system.cpu.iq.fu_full::SimdFloatCmp                 0                       # attempts to use FU when none available
system.cpu.iq.fu_full::SimdFloatCvt                 0                       # attempts to use FU when none available
system.cpu.iq.fu_full::SimdFloatDiv                 0                       # attempts to use FU when none available
system.cpu.iq.fu_full::SimdFloatMisc                0                       # attempts to use FU when none available
system.cpu.iq.fu_full::SimdFloatMult                0                       # attempts to use FU when none available
system.cpu.iq.fu_full::SimdFloatMultAcc             0                       # attempts to use FU when none available
system.cpu.iq.fu_full::SimdFloatSqrt                0                       # attempts to use FU when none available
system.cpu.iq.fu_full::MemRead                      0                       # attempts to use FU when none available
system.cpu.iq.fu_full::MemWrite                     0                       # attempts to use FU when none available
system.cpu.iq.fu_full::IprAccess                    0                       # attempts to use FU when none available
system.cpu.iq.fu_full::InstPrefetch                 0                       # attempts to use FU when none available
system.cpu.iq.FU_type_0::No_OpClass                 6      0.00%      0.00% # Type of FU issued
system.cpu.iq.FU_type_0::IntAlu             117720359     74.93%     74.93% # Type of FU issued
system.cpu.iq.FU_type_0::IntMult                    0      0.00%     74.93% # Type of FU issued
system.cpu.iq.FU_type_0::IntDiv                     0      0.00%     74.93% # Type of FU issued
system.cpu.iq.FU_type_0::FloatAdd             5570580      3.55%     78.48% # Type of FU issued
system.cpu.iq.FU_type_0::FloatCmp                   0      0.00%     78.48% # Type of FU issued
system.cpu.iq.FU_type_0::FloatCvt                   0      0.00%     78.48% # Type of FU issued
system.cpu.iq.FU_type_0::FloatMult                  0      0.00%     78.48% # Type of FU issued
system.cpu.iq.FU_type_0::FloatDiv                   0      0.00%     78.48% # Type of FU issued
system.cpu.iq.FU_type_0::FloatSqrt                  0      0.00%     78.48% # Type of FU issued
system.cpu.iq.FU_type_0::SimdAdd                    0      0.00%     78.48% # Type of FU issued
system.cpu.iq.FU_type_0::SimdAddAcc                 0      0.00%     78.48% # Type of FU issued
system.cpu.iq.FU_type_0::SimdAlu                    0      0.00%     78.48% # Type of FU issued
system.cpu.iq.FU_type_0::SimdCmp                    0      0.00%     78.48% # Type of FU issued
system.cpu.iq.FU_type_0::SimdCvt                    0      0.00%     78.48% # Type of FU issued
system.cpu.iq.FU_type_0::SimdMisc                   0      0.00%     78.48% # Type of FU issued
system.cpu.iq.FU_type_0::SimdMult                   0      0.00%     78.48% # Type of FU issued
system.cpu.iq.FU_type_0::SimdMultAcc                0      0.00%     78.48% # Type of FU issued
system.cpu.iq.FU_type_0::SimdShift                  0      0.00%     78.48% # Type of FU issued
system.cpu.iq.FU_type_0::SimdShiftAcc               0      0.00%     78.48% # Type of FU issued
system.cpu.iq.FU_type_0::SimdSqrt                   0      0.00%     78.48% # Type of FU issued
system.cpu.iq.FU_type_0::SimdFloatAdd               0      0.00%     78.48% # Type of FU issued
system.cpu.iq.FU_type_0::SimdFloatAlu               0      0.00%     78.48% # Type of FU issued
system.cpu.iq.FU_type_0::SimdFloatCmp               0      0.00%     78.48% # Type of FU issued
system.cpu.iq.FU_type_0::SimdFloatCvt               0      0.00%     78.48% # Type of FU issued
system.cpu.iq.FU_type_0::SimdFloatDiv               0      0.00%     78.48% # Type of FU issued
system.cpu.iq.FU_type_0::SimdFloatMisc              0      0.00%     78.48% # Type of FU issued
system.cpu.iq.FU_type_0::SimdFloatMult              0      0.00%     78.48% # Type of FU issued
system.cpu.iq.FU_type_0::SimdFloatMultAcc            0      0.00%     78.48% # Type of FU issued
system.cpu.iq.FU_type_0::SimdFloatSqrt              0      0.00%     78.48% # Type of FU issued
system.cpu.iq.FU_type_0::MemRead             22707937     14.45%     92.93% # Type of FU issued
system.cpu.iq.FU_type_0::MemWrite            11100074      7.07%    100.00% # Type of FU issued
system.cpu.iq.FU_type_0::IprAccess                  0      0.00%    100.00% # Type of FU issued
system.cpu.iq.FU_type_0::InstPrefetch               0      0.00%    100.00% # Type of FU issued
system.cpu.iq.FU_type_0::total              157098956                       # Type of FU issued
system.cpu.iq.rate                           0.215537                       # Inst issue rate
system.cpu.iq.fu_busy_cnt                           0                       # FU busy when requested
system.cpu.iq.fu_busy_rate                          0                       # FU busy rate (busy events/executed inst)
system.cpu.iq.int_inst_queue_reads         1019938994                       # Number of integer instruction queue reads
system.cpu.iq.int_inst_queue_writes         149562275                       # Number of integer instruction queue writes
system.cpu.iq.int_inst_queue_wakeup_accesses    149562274                       # Number of integer instruction queue wakeup accesses
system.cpu.iq.fp_inst_queue_reads            15073360                       # Number of floating instruction queue reads
system.cpu.iq.fp_inst_queue_writes            7503910                       # Number of floating instruction queue writes
system.cpu.iq.fp_inst_queue_wakeup_accesses      7503910                       # Number of floating instruction queue wakeup accesses
system.cpu.iq.int_alu_accesses              149562270                       # Number of integer alu accesses
system.cpu.iq.fp_alu_accesses                 7536680                       # Number of floating point alu accesses
system.cpu.iew.lsq.thread0.forwLoads            32766                       # Number of loads that had data forwarded from stores
system.cpu.iew.lsq.thread0.invAddrLoads             0                       # Number of loads ignored due to an invalid address
system.cpu.iew.lsq.thread0.squashedLoads            0                       # Number of loads squashed
system.cpu.iew.lsq.thread0.ignoredResponses            0                       # Number of memory responses ignored because the instruction is squashed
system.cpu.iew.lsq.thread0.memOrderViolation            0                       # Number of memory ordering violations
system.cpu.iew.lsq.thread0.squashedStores            0                       # Number of stores squashed
system.cpu.iew.lsq.thread0.invAddrSwpfs             0                       # Number of software prefetches ignored due to an invalid address
system.cpu.iew.lsq.thread0.blockedLoads             0                       # Number of blocked loads due to partial load-store forwarding
system.cpu.iew.lsq.thread0.rescheduledLoads        32771                       # Number of loads that were rescheduled
system.cpu.iew.lsq.thread0.cacheBlocked             0                       # Number of times an access to memory failed due to the cache being blocked
system.cpu.iew.iewIdleCycles                        0                       # Number of cycles IEW is idle
system.cpu.iew.iewSquashCycles                  98468                       # Number of cycles IEW is squashing
system.cpu.iew.iewBlockCycles                80680880                       # Number of cycles IEW is blocking
system.cpu.iew.iewUnblockCycles              21454992                       # Number of cycles IEW is unblocking
system.cpu.iew.iewDispatchedInsts           157066185                       # Number of instructions dispatched to IQ
system.cpu.iew.iewDispSquashedInsts                 0                       # Number of squashed instructions skipped by dispatch
system.cpu.iew.iewDispLoadInsts              22675166                       # Number of dispatched load instructions
system.cpu.iew.iewDispStoreInsts             11100074                       # Number of dispatched store instructions
system.cpu.iew.iewDispNonSpecInsts                  1                       # Number of dispatched non-speculative instructions
system.cpu.iew.iewIQFullEvents                      0                       # Number of times the IQ has become full, causing a stall
system.cpu.iew.iewLSQFullEvents                     0                       # Number of times the LSQ has become full, causing a stall
system.cpu.iew.memOrderViolationEvents              0                       # Number of memory order violations
system.cpu.iew.predictedTakenIncorrect          98315                       # Number of branches that were predicted taken incorrectly
system.cpu.iew.predictedNotTakenIncorrect          153                       # Number of branches that were predicted not taken incorrectly
system.cpu.iew.branchMispredicts                98468                       # Number of branch mispredicts detected at execute
system.cpu.iew.iewExecutedInsts             157098955                       # Number of executed instructions
system.cpu.iew.iewExecLoadInsts              22707936                       # Number of load instructions executed
system.cpu.iew.iewExecSquashedInsts                 0                       # Number of squashed instructions skipped in execute
system.cpu.iew.exec_swp                             0                       # number of swp insts executed
system.cpu.iew.exec_nop                             0                       # number of nop insts executed
system.cpu.iew.exec_refs                     33808010                       # number of memory reference insts executed
system.cpu.iew.exec_branches                 11092456                       # Number of branches executed
system.cpu.iew.exec_stores                   11100074                       # Number of stores executed
system.cpu.iew.exec_rate                     0.215537                       # Inst execution rate
system.cpu.iew.wb_sent                      157066184                       # cumulative count of insts sent to commit
system.cpu.iew.wb_count                     157066184                       # cumulative count of insts written-back
system.cpu.iew.wb_producers                         0                       # num instructions producing a value
system.cpu.iew.wb_consumers                         0                       # num instructions consuming a value
system.cpu.iew.wb_penalized                         0                       # number of instrctions required to write to 'other' IQ
system.cpu.iew.wb_rate                       0.215492                       # insts written-back per cycle
system.cpu.iew.wb_fanout                          nan                       # average fanout of values written-back
system.cpu.iew.wb_penalized_rate                    0                       # fraction of instructions written-back that wrote to 'other' IQ
system.cpu.commit.commitNonSpecStalls              21                       # The number of times commit has been forced to stall to communicate backwards
system.cpu.commit.branchMispredicts             98468                       # The number of times a branch was mispredicted
system.cpu.commit.committed_per_cycle::samples    720715975                       # Number of insts commited each cycle
system.cpu.commit.committed_per_cycle::mean     0.217931                       # Number of insts commited each cycle
system.cpu.commit.committed_per_cycle::stdev     0.412840                       # Number of insts commited each cycle
system.cpu.commit.committed_per_cycle::underflows            0      0.00%      0.00% # Number of insts commited each cycle
system.cpu.commit.committed_per_cycle::0    563649791     78.21%     78.21% # Number of insts commited each cycle
system.cpu.commit.committed_per_cycle::1    157066184     21.79%    100.00% # Number of insts commited each cycle
system.cpu.commit.committed_per_cycle::overflows            0      0.00%    100.00% # Number of insts commited each cycle
system.cpu.commit.committed_per_cycle::min_value            0                       # Number of insts commited each cycle
system.cpu.commit.committed_per_cycle::max_value            1                       # Number of insts commited each cycle
system.cpu.commit.committed_per_cycle::total    720715975                       # Number of insts commited each cycle
system.cpu.commit.committedInsts            100000000                       # Number of instructions committed
system.cpu.commit.committedOps              157066184                       # Number of ops (including micro ops) committed
system.cpu.commit.swp_count                         0                       # Number of s/w prefetches committed
system.cpu.commit.refs                       33775239                       # Number of memory references committed
system.cpu.commit.loads                      22675165                       # Number of loads committed
system.cpu.commit.membars                          20                       # Number of memory barriers committed
system.cpu.commit.branches                   11092456                       # Number of branches committed
system.cpu.commit.fp_insts                    7503910                       # Number of committed floating point instructions.
system.cpu.commit.int_insts                 151757722                       # Number of committed integer instructions.
system.cpu.commit.function_calls                    0                       # Number of function calls committed.
system.cpu.commit.bw_lim_events             157066184                       # number cycles where commit BW limit reached
system.cpu.commit.bw_limited                        0                       # number of insts not committed due to BW limits
system.cpu.rob.rob_reads                    720715975                       # The number of ROB reads
system.cpu.rob.rob_writes                   314230837                       # The number of ROB writes
system.cpu.timesIdled                          143087                       # Number of times that the entire CPU went into an idle state and unscheduled itself
system.cpu.idleCycles                         8058194                       # Total number of cycles that the CPU has spent unscheduled due to idling
system.cpu.committedInsts                   100000000                       # Number of Instructions Simulated
system.cpu.committedOps                     157066184                       # Number of Ops (including micro ops) Simulated
system.cpu.committedInsts_total             100000000                       # Number of Instructions Simulated
system.cpu.cpi                               7.288726                       # CPI: Cycles Per Instruction
system.cpu.cpi_total                         7.288726                       # CPI: Total CPI of All Threads
system.cpu.ipc                               0.137198                       # IPC: Instructions Per Cycle
system.cpu.ipc_total                         0.137198                       # IPC: Total IPC of All Threads
system.cpu.int_regfile_reads                294071392                       # number of integer regfile reads
system.cpu.int_regfile_writes               212959314                       # number of integer regfile writes
system.cpu.fp_regfile_reads                   8355864                       # number of floating regfile reads
system.cpu.fp_regfile_writes                  6586397                       # number of floating regfile writes
system.cpu.misc_regfile_reads                55927427                       # number of misc regfile reads
system.cpu.itb_walker_cache.replacements            0                       # number of replacements
system.cpu.itb_walker_cache.tagsinuse               0                       # Cycle average of tags in use
system.cpu.itb_walker_cache.total_refs              0                       # Total number of references to valid blocks.
system.cpu.itb_walker_cache.sampled_refs            0                       # Sample count of references to valid blocks.
system.cpu.itb_walker_cache.avg_refs              nan                       # Average number of references to valid blocks.
system.cpu.itb_walker_cache.warmup_cycle            0                       # Cycle when the warmup percentage was hit.
system.cpu.itb_walker_cache.blocked_cycles::no_mshrs            0                       # number of cycles access was blocked
system.cpu.itb_walker_cache.blocked_cycles::no_targets            0                       # number of cycles access was blocked
system.cpu.itb_walker_cache.blocked::no_mshrs            0                       # number of cycles access was blocked
system.cpu.itb_walker_cache.blocked::no_targets            0                       # number of cycles access was blocked
system.cpu.itb_walker_cache.avg_blocked_cycles::no_mshrs          nan                       # average number of cycles each access was blocked
system.cpu.itb_walker_cache.avg_blocked_cycles::no_targets          nan                       # average number of cycles each access was blocked
system.cpu.itb_walker_cache.fast_writes             0                       # number of fast writes performed
system.cpu.itb_walker_cache.cache_copies            0                       # number of cache copies performed
system.cpu.itb_walker_cache.no_allocate_misses            0                       # Number of misses that were no-allocate
system.cpu.dtb_walker_cache.replacements            0                       # number of replacements
system.cpu.dtb_walker_cache.tagsinuse               0                       # Cycle average of tags in use
system.cpu.dtb_walker_cache.total_refs              0                       # Total number of references to valid blocks.
system.cpu.dtb_walker_cache.sampled_refs            0                       # Sample count of references to valid blocks.
system.cpu.dtb_walker_cache.avg_refs              nan                       # Average number of references to valid blocks.
system.cpu.dtb_walker_cache.warmup_cycle            0                       # Cycle when the warmup percentage was hit.
system.cpu.dtb_walker_cache.blocked_cycles::no_mshrs            0                       # number of cycles access was blocked
system.cpu.dtb_walker_cache.blocked_cycles::no_targets            0                       # number of cycles access was blocked
system.cpu.dtb_walker_cache.blocked::no_mshrs            0                       # number of cycles access was blocked
system.cpu.dtb_walker_cache.blocked::no_targets            0                       # number of cycles access was blocked
system.cpu.dtb_walker_cache.avg_blocked_cycles::no_mshrs          nan                       # average number of cycles each access was blocked
system.cpu.dtb_walker_cache.avg_blocked_cycles::no_targets          nan                       # average number of cycles each access was blocked
system.cpu.dtb_walker_cache.fast_writes             0                       # number of fast writes performed
system.cpu.dtb_walker_cache.cache_copies            0                       # number of cache copies performed
system.cpu.dtb_walker_cache.no_allocate_misses            0                       # Number of misses that were no-allocate
system.cpu.icache.replacements                     14                       # number of replacements
system.cpu.icache.tagsinuse                 93.868558                       # Cycle average of tags in use
system.cpu.icache.total_refs                 21168683                       # Total number of references to valid blocks.
system.cpu.icache.sampled_refs                    136                       # Sample count of references to valid blocks.
system.cpu.icache.avg_refs               155652.080882                       # Average number of references to valid blocks.
system.cpu.icache.warmup_cycle                      0                       # Cycle when the warmup percentage was hit.
system.cpu.icache.occ_blocks::cpu.inst      93.868558                       # Average occupied blocks per requestor
system.cpu.icache.occ_percent::cpu.inst      0.366674                       # Average percentage of cache occupancy
system.cpu.icache.occ_percent::total         0.366674                       # Average percentage of cache occupancy
system.cpu.icache.ReadReq_hits::cpu.inst     21168683                       # number of ReadReq hits
system.cpu.icache.ReadReq_hits::total        21168683                       # number of ReadReq hits
system.cpu.icache.demand_hits::cpu.inst      21168683                       # number of demand (read+write) hits
system.cpu.icache.demand_hits::total         21168683                       # number of demand (read+write) hits
system.cpu.icache.overall_hits::cpu.inst     21168683                       # number of overall hits
system.cpu.icache.overall_hits::total        21168683                       # number of overall hits
system.cpu.icache.ReadReq_misses::cpu.inst          140                       # number of ReadReq misses
system.cpu.icache.ReadReq_misses::total           140                       # number of ReadReq misses
system.cpu.icache.demand_misses::cpu.inst          140                       # number of demand (read+write) misses
system.cpu.icache.demand_misses::total            140                       # number of demand (read+write) misses
system.cpu.icache.overall_misses::cpu.inst          140                       # number of overall misses
system.cpu.icache.overall_misses::total           140                       # number of overall misses
system.cpu.icache.ReadReq_miss_latency::cpu.inst      4870000                       # number of ReadReq miss cycles
system.cpu.icache.ReadReq_miss_latency::total      4870000                       # number of ReadReq miss cycles
system.cpu.icache.demand_miss_latency::cpu.inst      4870000                       # number of demand (read+write) miss cycles
system.cpu.icache.demand_miss_latency::total      4870000                       # number of demand (read+write) miss cycles
system.cpu.icache.overall_miss_latency::cpu.inst      4870000                       # number of overall miss cycles
system.cpu.icache.overall_miss_latency::total      4870000                       # number of overall miss cycles
system.cpu.icache.ReadReq_accesses::cpu.inst     21168823                       # number of ReadReq accesses(hits+misses)
system.cpu.icache.ReadReq_accesses::total     21168823                       # number of ReadReq accesses(hits+misses)
system.cpu.icache.demand_accesses::cpu.inst     21168823                       # number of demand (read+write) accesses
system.cpu.icache.demand_accesses::total     21168823                       # number of demand (read+write) accesses
system.cpu.icache.overall_accesses::cpu.inst     21168823                       # number of overall (read+write) accesses
system.cpu.icache.overall_accesses::total     21168823                       # number of overall (read+write) accesses
system.cpu.icache.ReadReq_miss_rate::cpu.inst     0.000007                       # miss rate for ReadReq accesses
system.cpu.icache.ReadReq_miss_rate::total     0.000007                       # miss rate for ReadReq accesses
system.cpu.icache.demand_miss_rate::cpu.inst     0.000007                       # miss rate for demand accesses
system.cpu.icache.demand_miss_rate::total     0.000007                       # miss rate for demand accesses
system.cpu.icache.overall_miss_rate::cpu.inst     0.000007                       # miss rate for overall accesses
system.cpu.icache.overall_miss_rate::total     0.000007                       # miss rate for overall accesses
system.cpu.icache.ReadReq_avg_miss_latency::cpu.inst 34785.714286                       # average ReadReq miss latency
system.cpu.icache.ReadReq_avg_miss_latency::total 34785.714286                       # average ReadReq miss latency
system.cpu.icache.demand_avg_miss_latency::cpu.inst 34785.714286                       # average overall miss latency
system.cpu.icache.demand_avg_miss_latency::total 34785.714286                       # average overall miss latency
system.cpu.icache.overall_avg_miss_latency::cpu.inst 34785.714286                       # average overall miss latency
system.cpu.icache.overall_avg_miss_latency::total 34785.714286                       # average overall miss latency
system.cpu.icache.blocked_cycles::no_mshrs            0                       # number of cycles access was blocked
system.cpu.icache.blocked_cycles::no_targets            0                       # number of cycles access was blocked
system.cpu.icache.blocked::no_mshrs                 0                       # number of cycles access was blocked
system.cpu.icache.blocked::no_targets               0                       # number of cycles access was blocked
system.cpu.icache.avg_blocked_cycles::no_mshrs          nan                       # average number of cycles each access was blocked
system.cpu.icache.avg_blocked_cycles::no_targets          nan                       # average number of cycles each access was blocked
system.cpu.icache.fast_writes                       0                       # number of fast writes performed
system.cpu.icache.cache_copies                      0                       # number of cache copies performed
system.cpu.icache.ReadReq_mshr_hits::cpu.inst            4                       # number of ReadReq MSHR hits
system.cpu.icache.ReadReq_mshr_hits::total            4                       # number of ReadReq MSHR hits
system.cpu.icache.demand_mshr_hits::cpu.inst            4                       # number of demand (read+write) MSHR hits
system.cpu.icache.demand_mshr_hits::total            4                       # number of demand (read+write) MSHR hits
system.cpu.icache.overall_mshr_hits::cpu.inst            4                       # number of overall MSHR hits
system.cpu.icache.overall_mshr_hits::total            4                       # number of overall MSHR hits
system.cpu.icache.ReadReq_mshr_misses::cpu.inst          136                       # number of ReadReq MSHR misses
system.cpu.icache.ReadReq_mshr_misses::total          136                       # number of ReadReq MSHR misses
system.cpu.icache.demand_mshr_misses::cpu.inst          136                       # number of demand (read+write) MSHR misses
system.cpu.icache.demand_mshr_misses::total          136                       # number of demand (read+write) MSHR misses
system.cpu.icache.overall_mshr_misses::cpu.inst          136                       # number of overall MSHR misses
system.cpu.icache.overall_mshr_misses::total          136                       # number of overall MSHR misses
system.cpu.icache.ReadReq_mshr_miss_latency::cpu.inst      4314000                       # number of ReadReq MSHR miss cycles
system.cpu.icache.ReadReq_mshr_miss_latency::total      4314000                       # number of ReadReq MSHR miss cycles
system.cpu.icache.demand_mshr_miss_latency::cpu.inst      4314000                       # number of demand (read+write) MSHR miss cycles
system.cpu.icache.demand_mshr_miss_latency::total      4314000                       # number of demand (read+write) MSHR miss cycles
system.cpu.icache.overall_mshr_miss_latency::cpu.inst      4314000                       # number of overall MSHR miss cycles
system.cpu.icache.overall_mshr_miss_latency::total      4314000                       # number of overall MSHR miss cycles
system.cpu.icache.ReadReq_mshr_miss_rate::cpu.inst     0.000006                       # mshr miss rate for ReadReq accesses
system.cpu.icache.ReadReq_mshr_miss_rate::total     0.000006                       # mshr miss rate for ReadReq accesses
system.cpu.icache.demand_mshr_miss_rate::cpu.inst     0.000006                       # mshr miss rate for demand accesses
system.cpu.icache.demand_mshr_miss_rate::total     0.000006                       # mshr miss rate for demand accesses
system.cpu.icache.overall_mshr_miss_rate::cpu.inst     0.000006                       # mshr miss rate for overall accesses
system.cpu.icache.overall_mshr_miss_rate::total     0.000006                       # mshr miss rate for overall accesses
system.cpu.icache.ReadReq_avg_mshr_miss_latency::cpu.inst 31720.588235                       # average ReadReq mshr miss latency
system.cpu.icache.ReadReq_avg_mshr_miss_latency::total 31720.588235                       # average ReadReq mshr miss latency
system.cpu.icache.demand_avg_mshr_miss_latency::cpu.inst 31720.588235                       # average overall mshr miss latency
system.cpu.icache.demand_avg_mshr_miss_latency::total 31720.588235                       # average overall mshr miss latency
system.cpu.icache.overall_avg_mshr_miss_latency::cpu.inst 31720.588235                       # average overall mshr miss latency
system.cpu.icache.overall_avg_mshr_miss_latency::total 31720.588235                       # average overall mshr miss latency
system.cpu.icache.no_allocate_misses                0                       # Number of misses that were no-allocate
system.cpu.dcache.replacements                 787412                       # number of replacements
system.cpu.dcache.tagsinuse                255.954615                       # Cycle average of tags in use
system.cpu.dcache.total_refs                 32954272                       # Total number of references to valid blocks.
system.cpu.dcache.sampled_refs                 787668                       # Sample count of references to valid blocks.
system.cpu.dcache.avg_refs                  41.837769                       # Average number of references to valid blocks.
system.cpu.dcache.warmup_cycle           1068099549500                       # Cycle when the warmup percentage was hit.
system.cpu.dcache.occ_blocks::cpu.data     255.954615                       # Average occupied blocks per requestor
system.cpu.dcache.occ_percent::cpu.data      0.999823                       # Average percentage of cache occupancy
system.cpu.dcache.occ_percent::total         0.999823                       # Average percentage of cache occupancy
system.cpu.dcache.ReadReq_hits::cpu.data     22499971                       # number of ReadReq hits
system.cpu.dcache.ReadReq_hits::total        22499971                       # number of ReadReq hits
system.cpu.dcache.WriteReq_hits::cpu.data     10454301                       # number of WriteReq hits
system.cpu.dcache.WriteReq_hits::total       10454301                       # number of WriteReq hits
system.cpu.dcache.demand_hits::cpu.data      32954272                       # number of demand (read+write) hits
system.cpu.dcache.demand_hits::total         32954272                       # number of demand (read+write) hits
system.cpu.dcache.overall_hits::cpu.data     32954272                       # number of overall hits
system.cpu.dcache.overall_hits::total        32954272                       # number of overall hits
system.cpu.dcache.ReadReq_misses::cpu.data       142428                       # number of ReadReq misses
system.cpu.dcache.ReadReq_misses::total        142428                       # number of ReadReq misses
system.cpu.dcache.WriteReq_misses::cpu.data       645773                       # number of WriteReq misses
system.cpu.dcache.WriteReq_misses::total       645773                       # number of WriteReq misses
system.cpu.dcache.demand_misses::cpu.data       788201                       # number of demand (read+write) misses
system.cpu.dcache.demand_misses::total         788201                       # number of demand (read+write) misses
system.cpu.dcache.overall_misses::cpu.data       788201                       # number of overall misses
system.cpu.dcache.overall_misses::total        788201                       # number of overall misses
system.cpu.dcache.ReadReq_miss_latency::cpu.data   4892154000                       # number of ReadReq miss cycles
system.cpu.dcache.ReadReq_miss_latency::total   4892154000                       # number of ReadReq miss cycles
system.cpu.dcache.WriteReq_miss_latency::cpu.data  22278205500                       # number of WriteReq miss cycles
system.cpu.dcache.WriteReq_miss_latency::total  22278205500                       # number of WriteReq miss cycles
system.cpu.dcache.demand_miss_latency::cpu.data  27170359500                       # number of demand (read+write) miss cycles
system.cpu.dcache.demand_miss_latency::total  27170359500                       # number of demand (read+write) miss cycles
system.cpu.dcache.overall_miss_latency::cpu.data  27170359500                       # number of overall miss cycles
system.cpu.dcache.overall_miss_latency::total  27170359500                       # number of overall miss cycles
system.cpu.dcache.ReadReq_accesses::cpu.data     22642399                       # number of ReadReq accesses(hits+misses)
system.cpu.dcache.ReadReq_accesses::total     22642399                       # number of ReadReq accesses(hits+misses)
system.cpu.dcache.WriteReq_accesses::cpu.data     11100074                       # number of WriteReq accesses(hits+misses)
system.cpu.dcache.WriteReq_accesses::total     11100074                       # number of WriteReq accesses(hits+misses)
system.cpu.dcache.demand_accesses::cpu.data     33742473                       # number of demand (read+write) accesses
system.cpu.dcache.demand_accesses::total     33742473                       # number of demand (read+write) accesses
system.cpu.dcache.overall_accesses::cpu.data     33742473                       # number of overall (read+write) accesses
system.cpu.dcache.overall_accesses::total     33742473                       # number of overall (read+write) accesses
system.cpu.dcache.ReadReq_miss_rate::cpu.data     0.006290                       # miss rate for ReadReq accesses
system.cpu.dcache.ReadReq_miss_rate::total     0.006290                       # miss rate for ReadReq accesses
system.cpu.dcache.WriteReq_miss_rate::cpu.data     0.058177                       # miss rate for WriteReq accesses
system.cpu.dcache.WriteReq_miss_rate::total     0.058177                       # miss rate for WriteReq accesses
system.cpu.dcache.demand_miss_rate::cpu.data     0.023359                       # miss rate for demand accesses
system.cpu.dcache.demand_miss_rate::total     0.023359                       # miss rate for demand accesses
system.cpu.dcache.overall_miss_rate::cpu.data     0.023359                       # miss rate for overall accesses
system.cpu.dcache.overall_miss_rate::total     0.023359                       # miss rate for overall accesses
system.cpu.dcache.ReadReq_avg_miss_latency::cpu.data 34348.260174                       # average ReadReq miss latency
system.cpu.dcache.ReadReq_avg_miss_latency::total 34348.260174                       # average ReadReq miss latency
system.cpu.dcache.WriteReq_avg_miss_latency::cpu.data 34498.508764                       # average WriteReq miss latency
system.cpu.dcache.WriteReq_avg_miss_latency::total 34498.508764                       # average WriteReq miss latency
system.cpu.dcache.demand_avg_miss_latency::cpu.data 34471.358829                       # average overall miss latency
system.cpu.dcache.demand_avg_miss_latency::total 34471.358829                       # average overall miss latency
system.cpu.dcache.overall_avg_miss_latency::cpu.data 34471.358829                       # average overall miss latency
system.cpu.dcache.overall_avg_miss_latency::total 34471.358829                       # average overall miss latency
system.cpu.dcache.blocked_cycles::no_mshrs            0                       # number of cycles access was blocked
system.cpu.dcache.blocked_cycles::no_targets            0                       # number of cycles access was blocked
system.cpu.dcache.blocked::no_mshrs                 0                       # number of cycles access was blocked
system.cpu.dcache.blocked::no_targets               0                       # number of cycles access was blocked
system.cpu.dcache.avg_blocked_cycles::no_mshrs          nan                       # average number of cycles each access was blocked
system.cpu.dcache.avg_blocked_cycles::no_targets          nan                       # average number of cycles each access was blocked
system.cpu.dcache.fast_writes                       0                       # number of fast writes performed
system.cpu.dcache.cache_copies                      0                       # number of cache copies performed
system.cpu.dcache.writebacks::writebacks       687833                       # number of writebacks
system.cpu.dcache.writebacks::total            687833                       # number of writebacks
system.cpu.dcache.ReadReq_mshr_hits::cpu.data          533                       # number of ReadReq MSHR hits
system.cpu.dcache.ReadReq_mshr_hits::total          533                       # number of ReadReq MSHR hits
system.cpu.dcache.demand_mshr_hits::cpu.data          533                       # number of demand (read+write) MSHR hits
system.cpu.dcache.demand_mshr_hits::total          533                       # number of demand (read+write) MSHR hits
system.cpu.dcache.overall_mshr_hits::cpu.data          533                       # number of overall MSHR hits
system.cpu.dcache.overall_mshr_hits::total          533                       # number of overall MSHR hits
system.cpu.dcache.ReadReq_mshr_misses::cpu.data       141895                       # number of ReadReq MSHR misses
system.cpu.dcache.ReadReq_mshr_misses::total       141895                       # number of ReadReq MSHR misses
system.cpu.dcache.WriteReq_mshr_misses::cpu.data       645773                       # number of WriteReq MSHR misses
system.cpu.dcache.WriteReq_mshr_misses::total       645773                       # number of WriteReq MSHR misses
system.cpu.dcache.demand_mshr_misses::cpu.data       787668                       # number of demand (read+write) MSHR misses
system.cpu.dcache.demand_mshr_misses::total       787668                       # number of demand (read+write) MSHR misses
system.cpu.dcache.overall_mshr_misses::cpu.data       787668                       # number of overall MSHR misses
system.cpu.dcache.overall_mshr_misses::total       787668                       # number of overall MSHR misses
system.cpu.dcache.ReadReq_mshr_miss_latency::cpu.data   4398791500                       # number of ReadReq MSHR miss cycles
system.cpu.dcache.ReadReq_mshr_miss_latency::total   4398791500                       # number of ReadReq MSHR miss cycles
system.cpu.dcache.WriteReq_mshr_miss_latency::cpu.data  20018986500                       # number of WriteReq MSHR miss cycles
system.cpu.dcache.WriteReq_mshr_miss_latency::total  20018986500                       # number of WriteReq MSHR miss cycles
system.cpu.dcache.demand_mshr_miss_latency::cpu.data  24417778000                       # number of demand (read+write) MSHR miss cycles
system.cpu.dcache.demand_mshr_miss_latency::total  24417778000                       # number of demand (read+write) MSHR miss cycles
system.cpu.dcache.overall_mshr_miss_latency::cpu.data  24417778000                       # number of overall MSHR miss cycles
system.cpu.dcache.overall_mshr_miss_latency::total  24417778000                       # number of overall MSHR miss cycles
system.cpu.dcache.ReadReq_mshr_miss_rate::cpu.data     0.006267                       # mshr miss rate for ReadReq accesses
system.cpu.dcache.ReadReq_mshr_miss_rate::total     0.006267                       # mshr miss rate for ReadReq accesses
system.cpu.dcache.WriteReq_mshr_miss_rate::cpu.data     0.058177                       # mshr miss rate for WriteReq accesses
system.cpu.dcache.WriteReq_mshr_miss_rate::total     0.058177                       # mshr miss rate for WriteReq accesses
system.cpu.dcache.demand_mshr_miss_rate::cpu.data     0.023344                       # mshr miss rate for demand accesses
system.cpu.dcache.demand_mshr_miss_rate::total     0.023344                       # mshr miss rate for demand accesses
system.cpu.dcache.overall_mshr_miss_rate::cpu.data     0.023344                       # mshr miss rate for overall accesses
system.cpu.dcache.overall_mshr_miss_rate::total     0.023344                       # mshr miss rate for overall accesses
system.cpu.dcache.ReadReq_avg_mshr_miss_latency::cpu.data 31000.327707                       # average ReadReq mshr miss latency
system.cpu.dcache.ReadReq_avg_mshr_miss_latency::total 31000.327707                       # average ReadReq mshr miss latency
system.cpu.dcache.WriteReq_avg_mshr_miss_latency::cpu.data 31000.036390                       # average WriteReq mshr miss latency
system.cpu.dcache.WriteReq_avg_mshr_miss_latency::total 31000.036390                       # average WriteReq mshr miss latency
system.cpu.dcache.demand_avg_mshr_miss_latency::cpu.data 31000.088870                       # average overall mshr miss latency
system.cpu.dcache.demand_avg_mshr_miss_latency::total 31000.088870                       # average overall mshr miss latency
system.cpu.dcache.overall_avg_mshr_miss_latency::cpu.data 31000.088870                       # average overall mshr miss latency
system.cpu.dcache.overall_avg_mshr_miss_latency::total 31000.088870                       # average overall mshr miss latency
system.cpu.dcache.no_allocate_misses                0                       # Number of misses that were no-allocate

---------- End Simulation Statistics   ----------
